32
Title                                   
C 0.555541 0.789613 1.697702
C 9.189136 1.493196 1.730074
C 0.568474 7.908253 1.685952
C 9.175456 2.927667 1.791935
C 0.564431 5.051865 1.720231
C 9.208388 5.762252 1.767706
C 0.560024 3.620871 1.759359
C 9.209404 7.186101 1.732558
C 3.021159 0.755766 1.782543
C 1.806273 1.489089 1.745839
C 1.813065 2.917308 1.796134
C 3.008159 5.067489 1.982993
C 1.789502 5.771146 1.754706
C 3.060940 3.624390 1.956608
C 1.786442 7.193379 1.726305
C 5.489777 0.710197 1.907359
C 5.474208 7.847456 2.027871
C 4.275637 2.833007 2.046201
C 4.197607 7.168808 2.060296
C 7.958220 0.760894 1.745494
C 6.708116 1.440886 1.836155
C 7.973020 7.896799 1.781845
C 6.700473 2.853538 1.999332
C 7.980441 5.082767 1.988567
C 7.917751 3.630493 1.945190
C 6.770478 7.168865 2.018034
N 4.089959 5.858552 2.310411
N 5.470932 3.412345 2.279182
N 6.870592 5.833508 2.279425
N 3.017044 7.912281 1.783467
N 4.238055 1.420542 1.881364
Co 5.485058 5.021865 3.192662
