31
Title                                   
C 0.005950 1.816823 5.940361
C 1.236968 2.557934 5.942662
C 1.236777 4.008930 5.961449
C -0.021428 4.708549 6.024211
C -0.022883 10.278756 6.022500
C 1.236088 12.429383 5.934096
C 0.003696 14.613414 5.915581
C 1.236915 15.338326 5.909507
C 1.236932 16.778608 5.913816
C 0.005127 13.170285 5.929741
C 2.468144 1.817408 5.923711
C 3.709302 2.525140 5.934663
C 3.708837 3.959439 5.946166
C 2.469968 0.374686 5.914278
C 3.707559 6.711236 5.970929
C 3.707275 8.275228 5.975477
C 2.495464 4.714306 5.906305
C 2.493768 10.272667 5.912518
C 3.708354 12.461561 5.924960
C 2.469708 14.612692 5.905828
C 3.708689 15.335518 5.908779
C 3.708864 16.781325 5.913480
C 2.467264 13.169885 5.913860
C 3.707361 11.027573 5.942901
C 1.235513 10.978758 5.960748
C 0.003876 0.374125 5.924109
N 2.531214 8.901348 5.818898
N 4.869028 8.911165 6.168252
N 2.533144 6.084812 5.799289
N -0.075785 6.075353 6.174032
Ag 1.304807 7.492915 7.368094
