31
Title                                   
C -0.023155 1.795850 5.865802
C 1.202644 2.530856 5.897387
C 1.189399 3.966224 5.989488
C -0.060973 4.687595 6.066308
C 0.032032 10.313478 6.054381
C 1.264508 12.453652 5.892446
C 0.014231 14.610132 5.826835
C 1.239921 15.335867 5.823770
C 1.226503 16.772893 5.829140
C 0.029626 13.168594 5.855064
C 2.445141 1.803726 5.849718
C 3.683831 2.515887 5.859444
C 3.669180 3.948339 5.910165
C 2.457104 0.364828 5.827984
C 3.684082 6.764386 6.131976
C 3.734917 8.257199 6.179946
C 2.433566 4.682646 5.947809
C 2.520064 10.304201 5.992602
C 3.728315 12.467448 5.857511
C 2.473142 14.614642 5.821346
C 3.711488 15.328079 5.815578
C 3.698162 16.768558 5.820267
C 2.483936 13.172755 5.848392
C 3.746435 11.053113 5.923478
C -0.012353 0.361001 5.836615
C 0.005808 8.940757 6.305406
C 2.475587 6.094265 5.973051
N 2.526578 8.958746 6.085914
N -0.080034 6.046265 6.322136
N 1.280240 11.022989 5.984839
Y 1.362492 7.453178 7.306402
