32
Title                                   
C 0.558458 0.772297 1.702051
C 9.190927 1.478005 1.754766
C 0.559759 7.891658 1.697043
C 9.187734 2.907022 1.822314
C 0.554655 5.039494 1.759198
C 9.196527 5.751677 1.807937
C 0.563745 3.618659 1.789897
C 9.190364 7.180569 1.750209
C 3.017889 0.758458 1.748426
C 1.799574 1.488582 1.734601
C 3.030618 7.891828 1.770786
C 1.802187 2.911866 1.803820
C 3.015040 5.038713 1.962038
C 1.791868 5.741819 1.769612
C 1.796766 7.168319 1.732654
C 5.482735 0.748123 1.891044
C 4.247271 1.461683 1.850400
C 4.247453 2.880706 2.001664
C 4.246750 7.179629 1.970539
C 7.965125 0.764645 1.779990
C 6.720263 1.454381 1.890087
C 7.952665 7.898091 1.787968
C 6.713825 2.867638 2.050884
C 7.973169 5.051438 2.014129
C 7.954610 3.611712 1.980810
C 6.726046 7.192323 1.974277
C 4.190919 5.787238 2.270779
C 5.465805 3.521180 2.293721
C 6.789224 5.815555 2.263724
N 5.479594 7.884153 1.949030
N 3.018456 3.616396 1.931004
Fe 5.503742 5.037333 3.208097
