32
Title                                   
C 0.557240 0.776830 1.759988
C 9.188429 1.476170 1.787825
C 0.548142 7.898310 1.769045
C 9.183878 2.904977 1.856349
C 0.556247 5.039307 1.808671
C 9.188115 5.746441 1.878295
C 0.565282 3.618501 1.817859
C 9.181933 7.172000 1.824761
C 3.014589 0.775601 1.783822
C 1.797049 1.496775 1.769759
C 3.011473 7.910048 1.792817
C 1.821024 2.929507 1.787429
C 3.040406 5.090956 1.812857
C 1.788413 5.761559 1.788831
C 3.077610 3.643846 1.805714
C 1.779688 7.188604 1.775176
C 5.484165 0.721782 1.867414
C 4.266010 1.450836 1.831291
C 4.309627 2.873783 1.860128
C 4.222348 7.179243 1.865771
C 7.965382 0.748838 1.801847
C 6.721049 1.427346 1.865361
C 7.945904 7.879093 1.830574
C 6.704359 2.848372 1.951722
C 7.958715 5.042615 2.079311
C 6.795430 5.814696 2.387297
C 7.943392 3.601285 1.988763
C 6.714582 7.165892 2.002911
N 4.220446 5.831353 1.877030
N 5.516671 3.511602 1.981245
N 5.467833 7.864179 1.910182
Rh 5.398333 5.020844 3.393459
