32
Title                                   
C 0.552203 0.790062 1.805540
C 9.174902 1.505223 1.798972
C 0.563015 7.897801 1.813628
C 9.162537 2.930404 1.777204
C 0.558958 5.050776 1.772905
C 9.196146 5.751818 1.793632
C 0.546097 3.618290 1.794074
C 9.198130 7.184329 1.818702
C 3.016716 0.750112 1.866739
C 1.797621 1.485857 1.824616
C 3.039505 7.884118 1.894810
C 1.794872 2.907747 1.837664
C 3.036542 5.030627 2.003935
C 1.796547 5.737711 1.833876
C 1.801993 7.170809 1.848583
C 5.497414 0.735809 1.927775
C 4.256127 1.447032 1.919058
C 4.282832 2.862397 1.914677
C 4.265923 7.162797 2.063561
C 7.962708 0.773931 1.839523
C 6.716698 1.466731 1.872373
C 7.962877 7.908690 1.864025
C 6.661498 2.888774 1.821625
C 7.932004 5.089070 1.817089
C 6.760606 7.167907 1.941791
C 4.182669 5.777703 2.387938
N 5.458185 3.551154 1.847159
N 6.773312 5.806588 1.925495
N 5.506998 7.859639 1.990745
N 3.043068 3.604873 1.908720
N 7.892842 3.647508 1.750076
Rh 5.542219 4.964899 3.436987
