32
Title                                   
C 0.554903 0.786879 1.684016
C 9.184638 1.495525 1.724133
C 0.554779 7.902476 1.698746
C 9.172790 2.923040 1.816963
C 0.555240 5.041746 1.794378
C 9.193194 5.756336 1.819588
C 0.555220 3.619212 1.808178
C 9.193014 7.184017 1.748954
C 3.014162 0.767305 1.705460
C 1.795065 1.495717 1.716721
C 3.022324 7.898860 1.730685
C 1.807210 2.923504 1.805113
C 3.021009 5.078573 1.991349
C 1.786616 5.756851 1.815074
C 3.067618 3.633061 1.946955
C 1.786204 7.184488 1.747238
C 5.489509 0.718262 1.868762
C 4.259415 1.437310 1.823153
C 4.274219 2.842517 1.994408
C 4.229288 7.176367 1.907672
C 7.965799 0.766295 1.712127
C 6.720944 1.436223 1.832637
C 7.956887 7.897910 1.732185
C 6.706135 2.841083 2.006310
C 7.959255 5.077887 2.000542
C 7.912993 3.631895 1.962502
C 6.749941 7.175285 1.908520
N 4.166054 5.853248 2.246731
N 5.488873 3.426478 2.336388
N 6.813692 5.852951 2.249494
N 5.489397 7.841021 1.911542
Zr 5.487375 4.988867 3.666974
