31
Title                                   
C 0.005812 1.829393 5.964635
C 1.237432 2.563713 5.974022
C 1.237170 4.022584 6.002516
C -0.006881 4.729591 6.051825
C -0.007004 10.256983 6.058242
C 1.237346 12.423254 5.983871
C 0.003688 14.606142 5.950915
C 1.237575 15.334509 5.941133
C 1.237587 16.782944 5.937183
C 0.005862 13.157983 5.974848
C 2.469278 1.829758 5.953967
C 3.709673 2.551810 5.971312
C 3.709954 3.990874 5.998582
C 2.471278 0.382081 5.937592
C 3.709131 6.760869 6.044093
C 3.709241 8.225477 6.045222
C 2.481807 4.729671 5.976439
C 2.481895 10.257044 5.983558
C 3.709645 12.435392 5.981788
C 2.471206 14.605807 5.945069
C 3.709332 15.334832 5.940198
C 3.709327 16.782655 5.936367
C 2.469116 13.157597 5.965058
C 3.709898 10.996181 6.007200
C 1.237127 10.964021 6.010811
C 0.003667 0.381664 5.944011
N 2.524542 8.868334 5.934678
N 4.895148 8.868955 6.145752
N 2.524503 6.118130 5.931625
N -0.048997 6.117078 6.143494
Fe 1.241140 7.492821 6.065196
