31
Title                                   
C 0.546597 0.756147 1.621967
C 9.188945 1.478701 1.765694
C 0.554422 7.885789 1.621763
C 9.202015 2.904426 1.819653
C 0.552854 5.039112 1.641907
C 9.204560 5.758490 1.824402
C 0.548571 3.616906 1.641744
C 9.196121 7.182269 1.772233
C 3.018211 0.757257 1.656711
C 1.778454 1.461871 1.589251
C 3.032755 7.880845 1.647779
C 1.770965 2.887382 1.577639
C 3.029485 5.035175 1.624155
C 1.784133 5.741875 1.571880
C 3.005822 3.566685 1.638624
C 1.796309 7.170575 1.576222
C 5.483525 0.783792 2.073294
C 4.224691 1.505957 1.849221
C 5.489371 7.909297 2.074269
C 4.242697 5.738989 1.789386
C 4.260358 7.151311 1.829510
C 7.963366 0.775956 1.913724
C 6.751722 1.511737 2.169645
C 7.967473 7.897601 1.922446
C 6.819758 2.891570 2.444361
C 8.016996 5.071250 2.184232
C 6.828702 5.794181 2.487488
C 8.014329 3.604685 2.177107
C 6.759285 7.177782 2.192360
N 4.173792 2.873256 1.840384
Y 5.235090 4.331177 3.280249
