32
Title                                   
C 0.550338 0.786305 1.711505
C 9.174035 1.498959 1.743520
C 0.556164 7.892633 1.689404
C 9.167820 2.921192 1.797142
C 0.553647 5.042030 1.712477
C 9.191428 5.741512 1.721481
C 0.548847 3.617697 1.785352
C 9.190578 7.178915 1.714399
C 3.012153 0.762889 1.757457
C 1.793464 1.488549 1.755896
C 3.031285 7.893674 1.774095
C 1.790540 2.907598 1.824440
C 3.015171 5.042037 1.975227
C 1.786563 5.731356 1.751840
C 1.797815 7.170596 1.726394
C 5.490942 0.739945 1.933731
C 4.251147 1.451198 1.878234
C 4.261805 2.858922 2.006595
C 4.239645 7.174145 1.993399
C 7.960690 0.769520 1.750725
C 6.722460 1.465617 1.869520
C 7.954542 7.903548 1.764951
C 6.692377 2.865517 1.975767
C 7.957763 5.068000 1.867578
C 6.752573 7.181414 1.941416
C 4.164747 5.794383 2.309413
N 5.473089 3.485159 2.321109
N 6.823574 5.812903 2.175634
N 5.499424 7.856869 1.985138
N 3.049252 3.606752 1.952514
N 7.901788 3.638164 1.881667
Hf 5.578095 5.063191 3.665482
