31
Title                                   
C 0.548333 0.764345 1.859818
C 9.183786 1.486355 1.857994
C 0.561802 7.890049 1.860083
C 9.195558 2.911519 1.918339
C 0.559382 5.041449 1.959839
C 9.214145 5.773864 1.939232
C 0.550491 3.612888 1.960043
C 9.202663 7.194305 1.880796
C 3.020315 0.754418 1.825737
C 1.776863 1.460156 1.880411
C 3.035166 7.871815 1.802652
C 1.765137 2.880575 1.939613
C 3.014623 5.013578 1.893543
C 1.783905 5.742940 1.918203
C 2.990515 3.569363 1.933247
C 1.795749 7.167940 1.857802
C 5.482385 0.777094 1.800535
C 4.238621 1.489230 1.834200
C 5.497445 7.877030 1.800432
C 4.242934 5.713314 1.823650
C 4.267568 7.136326 1.786564
C 7.944325 0.782560 1.803932
C 6.712014 1.518269 1.788486
C 7.959174 7.899969 1.826848
C 6.736475 2.941520 1.826935
C 7.989048 5.084773 1.934550
C 7.964936 3.640623 1.894959
C 6.741159 7.164585 1.835969
N 4.191665 2.882292 1.934468
N 6.788135 5.771685 1.938397
Nb 5.487055 4.327214 2.702023
