32
Title                                   
C 0.553840 0.778381 1.675644
C 9.190549 1.489389 1.693479
C 0.569902 7.898056 1.664411
C 9.184191 2.924478 1.740340
C 0.563875 5.049443 1.706015
C 9.205618 5.761643 1.709425
C 0.559361 3.619319 1.728380
C 9.207960 7.184957 1.682371
C 3.018567 0.752617 1.798209
C 1.799827 1.476003 1.743649
C 1.797032 2.903065 1.803241
C 2.991369 5.029157 2.083974
C 1.794827 5.763060 1.798985
C 3.017405 3.598262 2.040441
C 1.796052 7.185504 1.741281
C 5.489400 0.735528 1.874764
C 5.482001 7.874483 1.967843
C 4.235095 2.829507 2.161615
C 4.216446 7.188843 2.092868
C 7.954330 0.766611 1.700528
C 6.707961 1.460265 1.809004
C 7.970630 7.902016 1.725259
C 6.723678 2.871149 2.021689
C 7.977285 5.070631 1.882883
C 7.941610 3.631293 1.891511
C 6.754142 7.187281 1.914051
C 4.104724 5.840074 2.425286
C 5.483236 3.418069 2.430802
N 6.834814 5.823506 2.092052
N 3.018410 7.908945 1.810960
N 4.230470 1.427072 1.909965
Ir 5.559154 5.062584 3.392574
