32
Title                                   
C 0.551642 0.783331 1.693284
C 9.176347 1.494880 1.733533
C 0.558713 7.891935 1.663674
C 9.175354 2.919242 1.806581
C 0.553440 5.039354 1.710790
C 9.195580 5.743808 1.714394
C 0.548486 3.614784 1.787645
C 9.192958 7.178046 1.689793
C 3.013491 0.758004 1.748427
C 1.793809 1.484484 1.751145
C 3.033179 7.890046 1.750913
C 1.788617 2.905060 1.833490
C 3.002351 5.032912 1.996538
C 1.785259 5.731942 1.746727
C 1.796780 7.168462 1.704464
C 5.492698 0.743029 1.889906
C 4.247877 1.451388 1.877172
C 4.245299 2.861251 2.077342
C 4.242384 7.173943 1.968252
C 7.961571 0.768162 1.724497
C 6.725425 1.466624 1.849255
C 7.956783 7.901806 1.733056
C 6.709170 2.874031 2.037357
C 7.967620 5.064590 1.909709
C 6.758591 7.178207 1.924011
C 4.146300 5.798797 2.344642
C 5.478729 3.488412 2.429774
N 6.848666 5.818694 2.209473
N 5.499566 7.851447 1.932554
N 3.019317 3.602334 1.989008
N 7.930788 3.635239 1.926853
Mo 5.536974 5.096950 3.559243
