25
Title                                   
C 7.776744 1.775952 1.919862
C 7.761547 4.296432 1.891748
C 7.793752 6.822947 1.912987
C 1.682120 0.711278 1.913771
C 0.636286 1.757010 1.913072
C 1.701140 7.851716 1.920568
C 1.365028 5.523039 1.926571
C 0.668298 4.283520 1.891917
C 1.357067 3.022961 1.876213
C 0.653190 6.804054 1.919934
C 4.208207 0.743092 1.893715
C 2.948015 1.432007 1.877351
C 4.221182 7.836361 1.893758
C 2.981907 7.139463 1.927547
C 6.728824 0.728171 1.920539
C 5.447522 1.440130 1.927413
C 6.747935 7.868578 1.913544
C 7.072838 5.556907 1.876240
C 7.064470 3.056969 1.925892
C 5.481719 7.147583 1.877462
C 2.782731 5.721734 1.997063
C 5.646493 2.857710 1.996200
N 2.736890 2.811566 1.810831
N 5.693137 5.768066 1.811270
Cu 4.213496 4.288766 1.938631
