32
Title                                   
C 0.555261 0.796403 1.822346
C 9.179291 1.503107 1.848227
C 0.555797 7.902707 1.815460
C 9.174862 2.922309 1.918818
C 0.556171 5.045345 1.868162
C 9.198998 5.742889 1.887234
C 0.556919 3.617427 1.892601
C 9.194001 7.180669 1.847253
C 3.015065 0.761733 1.797082
C 1.801504 1.499807 1.823807
C 3.021817 7.895098 1.804625
C 1.806839 2.920284 1.856635
C 3.038969 5.078044 1.830387
C 1.784590 5.742573 1.840160
C 1.787829 7.179733 1.810920
C 5.491256 0.722523 1.864666
C 4.260378 1.442292 1.840792
C 4.295042 2.859720 1.947791
C 4.222793 7.140827 1.808696
C 7.965879 0.765579 1.810022
C 6.721961 1.447636 1.877581
C 7.962550 7.898113 1.825350
C 6.682461 2.862424 2.028577
C 7.952763 5.075624 2.026175
C 6.759953 7.155175 1.929860
N 4.198876 5.782681 1.771526
N 5.481915 3.481403 2.210838
N 6.822047 5.815204 2.187824
N 5.495652 7.827314 1.838698
N 3.077723 3.625807 1.852772
N 7.905017 3.633211 2.005565
Ni 5.409586 5.087529 3.223052
