32
Title                                   
C -0.000891 1.793864 5.765470
C 1.235645 2.508307 5.828138
C 1.235680 3.931322 5.993665
C 0.006607 6.046165 6.357551
C -0.001451 4.642704 6.074451
C -0.022827 10.335662 6.062825
C 1.235678 12.459963 5.840509
C 0.001948 14.621582 5.707406
C 1.235408 15.341797 5.692052
C 1.235288 16.774625 5.690064
C 0.003320 13.189317 5.775355
C 2.471984 1.793845 5.765726
C 3.707634 2.512985 5.806880
C 3.707672 3.937028 5.945235
C 2.472125 0.362419 5.702335
C 2.464188 6.046222 6.357642
C 3.707434 6.813891 6.395921
C 3.707574 8.283898 6.312264
C 2.472559 4.642747 6.074445
C 2.493949 10.335885 6.063736
C 3.707771 12.486743 5.814622
C 2.469108 14.621496 5.707402
C 3.707466 15.337673 5.688781
C 3.707383 16.771678 5.685472
C 2.468055 13.189284 5.775431
C 3.707794 11.064737 5.954491
C 1.235644 11.025112 5.988175
C -0.001368 0.362499 5.701986
N 2.533688 8.969670 6.268936
N 4.881889 8.968943 6.265574
N 1.235423 6.618754 6.653756
Ir 1.234957 8.256504 7.735003
