32
Title                                   
C 0.555087 0.776093 1.696602
C 9.193603 1.474309 1.733373
C 0.560191 7.898170 1.700166
C 9.197179 2.902941 1.793908
C 0.565451 5.041497 1.727186
C 9.205288 5.745299 1.789166
C 0.568856 3.614076 1.746088
C 9.197473 7.171423 1.744853
C 3.018318 0.758281 1.774138
C 1.795350 1.482166 1.731340
C 1.811670 2.913434 1.772407
C 3.001343 5.067955 1.961533
C 1.788715 5.768603 1.759715
C 3.043599 3.638632 1.937351
C 1.783235 7.191091 1.745531
C 5.487567 0.736989 1.893776
C 4.252330 1.454402 1.873902
C 5.465197 7.862085 1.973386
C 4.264929 2.873570 2.044209
C 5.503428 3.494395 2.348737
C 4.197745 7.189151 2.003823
C 7.963237 0.750047 1.765948
C 6.729377 1.446211 1.879573
C 7.958365 7.881698 1.789539
C 6.737597 2.857199 2.071795
C 7.993543 5.035490 2.019416
C 6.824663 5.784541 2.300939
C 7.972110 3.600102 1.986561
C 6.734781 7.162501 2.004267
N 4.107213 5.852777 2.283211
N 3.006462 7.908263 1.797368
V 5.449861 5.077796 3.423694
