32
Title                                   
C 0.555186 0.797731 1.825649
C 9.177813 1.502205 1.835682
C 0.555361 7.903645 1.823564
C 9.173181 2.924211 1.852971
C 0.555277 5.049003 1.815350
C 9.195237 5.745362 1.836388
C 0.555289 3.621160 1.839841
C 9.191658 7.182012 1.836970
C 3.017678 0.763735 1.819001
C 1.802183 1.501812 1.826965
C 3.024103 7.895478 1.832235
C 1.806953 2.923795 1.843541
C 3.036822 5.075716 1.887137
C 1.784946 5.745242 1.828224
C 1.788538 7.181730 1.827468
C 5.490156 0.724382 1.882059
C 4.260331 1.449289 1.862373
C 4.298097 2.871821 1.913847
C 4.227671 7.144188 1.895073
C 7.962607 0.764175 1.832122
C 6.719824 1.449299 1.872086
C 7.956757 7.895989 1.844022
C 6.681768 2.871660 1.925144
C 7.943334 5.075992 1.901657
C 6.753176 7.144453 1.907012
N 4.196416 5.782791 1.999379
N 5.489462 3.531315 2.039576
N 6.785059 5.783615 2.017295
N 5.490288 7.824835 1.884772
N 3.074423 3.633431 1.862561
N 7.905802 3.633717 1.877530
Mo 5.478365 5.017401 3.666002
