32
Title                                   
C 0.554151 0.776311 1.728318
C 9.195663 1.473622 1.767816
C 0.562517 7.897483 1.728295
C 9.197484 2.903564 1.827046
C 0.564051 5.041996 1.758383
C 9.205531 5.747730 1.818791
C 0.568515 3.613743 1.778504
C 9.198076 7.171531 1.776805
C 3.017711 0.758820 1.781839
C 1.796606 1.480769 1.754255
C 1.808414 2.911514 1.792831
C 3.003731 5.064473 1.930948
C 1.785144 5.769672 1.770760
C 3.039998 3.638808 1.924842
C 1.781176 7.188575 1.756005
C 5.487335 0.741482 1.893329
C 4.250898 1.453349 1.871519
C 5.465160 7.864051 1.955442
C 4.260619 2.874874 2.026158
C 5.499631 3.495062 2.296170
C 4.206078 7.188749 1.961127
C 7.963691 0.751601 1.793275
C 6.728025 1.447205 1.891376
C 7.961756 7.884213 1.815845
C 6.738111 2.864067 2.063788
C 7.990927 5.033716 2.030690
C 6.824566 5.788062 2.281183
C 7.974714 3.600399 1.997351
C 6.734072 7.165353 2.007677
N 4.128461 5.841459 2.179217
N 3.009664 7.905596 1.791586
Cr 5.431286 5.073339 3.322330
