32
Title                                   
C 0.555604 0.771905 1.630970
C 9.191476 1.480044 1.666357
C 0.565184 7.894673 1.614673
C 9.187787 2.910258 1.745157
C 0.565157 5.049663 1.682287
C 9.201895 5.752171 1.712561
C 0.562021 3.615066 1.716625
C 9.198223 7.177407 1.658981
C 3.018090 0.754501 1.734082
C 1.799469 1.477391 1.695512
C 1.799846 2.905421 1.768048
C 3.007889 5.043697 2.024507
C 1.800402 5.759642 1.732033
C 3.023053 3.604573 1.993753
C 1.797186 7.187994 1.675213
C 5.479149 0.744678 1.850022
C 5.469024 7.894472 1.998861
C 4.254496 2.846123 2.103966
C 4.208695 7.188488 2.078213
C 7.953939 0.759224 1.681926
C 6.711703 1.462353 1.792088
C 7.958645 7.894864 1.718939
C 6.721348 2.868258 2.019934
C 7.977252 5.057332 1.972825
C 7.954688 3.608742 1.937849
C 6.740844 7.188469 1.991698
C 4.132521 5.833064 2.380079
C 5.478087 3.461744 2.372693
C 6.821930 5.808055 2.283548
N 3.017904 7.915201 1.747992
N 4.232209 1.436904 1.839844
Y 5.548046 5.058813 3.892263
