31
Title                                   
C 0.546848 0.756666 1.815460
C 9.184252 1.476101 1.720795
C 0.552416 7.883927 1.828989
C 9.203506 2.898566 1.747500
C 0.550858 5.038741 1.874890
C 9.202657 5.760557 1.805036
C 0.549119 3.612545 1.859430
C 9.186325 7.182172 1.764017
C 3.018846 0.768889 1.990205
C 1.771862 1.459008 1.925934
C 3.032145 7.872193 1.987120
C 1.766699 2.884229 1.952383
C 2.990955 5.021445 2.099714
C 1.777089 5.744277 1.962350
C 2.973085 3.583935 2.108269
C 1.787160 7.173119 1.934040
C 5.458699 0.795594 1.895952
C 4.229291 1.533810 2.056978
C 5.464890 7.905733 1.902546
C 4.241713 5.681798 2.192535
C 4.260216 7.127140 2.045261
C 7.943684 0.775682 1.667565
C 6.699388 1.494398 1.681870
C 7.945408 7.899829 1.693738
C 6.743945 2.902560 1.608339
C 7.970452 5.059126 1.720457
C 6.742984 5.787383 1.735613
C 7.975235 3.607637 1.649432
C 6.704691 7.203124 1.729830
N 4.183913 2.931603 2.233466
W 5.783041 4.320255 2.629587
