31
Title                                   
C -0.003265 1.795523 5.823236
C 1.226701 2.522662 5.889032
C 1.226238 3.944862 6.033669
C -0.021965 4.664405 6.039802
C 0.012680 10.338569 5.987122
C 1.249347 12.477653 5.870395
C 0.006759 14.631261 5.780279
C 1.240856 15.350498 5.776067
C 1.236797 16.777037 5.773404
C 0.010661 13.202089 5.818474
C 2.465616 1.797825 5.841263
C 3.704526 2.505189 5.862960
C 3.697468 3.930205 5.975969
C 2.470365 0.368808 5.785890
C 3.715246 6.699700 6.242675
C 3.742245 8.210141 6.209175
C 2.471584 4.646349 6.139421
C 2.498378 10.331612 6.082370
C 3.719830 12.491718 5.853982
C 2.478702 14.631479 5.789879
C 3.713526 15.348364 5.770598
C 3.709082 16.781150 5.767840
C 2.483422 13.205220 5.837630
C 3.723375 11.064287 5.949065
C 1.254017 11.060155 5.978955
C 0.000423 0.366492 5.776345
C 2.520393 8.936709 6.321632
C -0.005478 8.929762 6.062020
C 2.509233 6.036051 6.412108
N -0.046525 6.036085 6.098675
Sc 1.132179 7.476286 7.151269
