31
Title                                   
C 0.551159 0.754668 1.755057
C 9.187646 1.473897 1.769731
C 0.558893 7.885909 1.758808
C 9.205710 2.899180 1.782355
C 0.561379 5.037916 1.772048
C 9.207844 5.761686 1.796800
C 0.558367 3.615747 1.767751
C 9.192296 7.184629 1.782582
C 3.016408 0.764948 1.847229
C 1.778981 1.461617 1.791676
C 3.029658 7.878875 1.843139
C 1.774704 2.887451 1.801863
C 3.015174 5.026751 1.899723
C 1.788722 5.742275 1.803591
C 2.992389 3.576848 1.906559
C 1.795117 7.171472 1.790694
C 5.475421 0.790387 1.969127
C 4.227876 1.517572 1.957746
C 5.481109 7.906461 1.973592
C 4.242222 5.720986 2.013756
C 4.257361 7.146823 1.946931
C 7.950546 0.776521 1.815474
C 6.720490 1.519935 1.913846
C 7.953378 7.894645 1.826969
C 6.760182 2.931002 1.959082
C 7.987144 5.060799 1.887691
C 6.759739 5.749808 2.023245
C 7.988727 3.611522 1.863756
C 6.724236 7.167707 1.941979
N 4.183733 2.899868 2.040169
Ti 5.514763 4.324139 2.816333
