31
Title                                   
C -0.007730 1.814674 5.963993
C 1.221492 2.554533 5.977284
C 1.218639 3.994289 6.003686
C -0.018636 4.743495 6.016952
C 0.017350 10.283265 6.022385
C 1.254108 12.418928 5.981038
C 0.011667 14.597842 5.949495
C 1.240451 15.330870 5.943954
C 1.236042 16.775891 5.942017
C 0.015838 13.145178 5.969174
C 2.464738 1.823713 5.964106
C 3.703905 2.543155 5.976072
C 3.696006 3.991705 6.002318
C 2.469477 0.374953 5.945671
C 3.695626 6.770749 6.040814
C 3.718936 8.249582 6.043001
C 2.457374 4.707134 6.013503
C 2.494128 10.254493 6.015274
C 3.715996 12.442064 5.980343
C 2.472799 14.602506 5.948730
C 3.712594 15.322240 5.943546
C 3.707198 16.772815 5.941405
C 2.479010 13.152273 5.967743
C 3.725569 11.008887 6.006472
C -0.002135 0.371425 5.945733
C 0.000427 8.881455 6.047111
C 2.483327 6.128471 6.029531
N 2.508678 8.887299 6.029571
N -0.043625 6.130299 6.040367
N 1.258620 10.991396 6.005841
Ni 1.234547 7.492571 6.044070
