93
Title                                   
C 0.003283 1.833141 5.959910
C 1.239413 2.568914 5.973069
C 1.241800 4.025111 6.001779
C -0.005459 4.727477 6.015947
C -0.006558 10.251318 6.021810
C 1.226997 12.419586 5.981748
C 0.002002 14.603159 5.948934
C 1.232946 15.330732 5.941992
C 1.234765 16.782080 5.938041
C 0.000285 13.145916 5.969673
C 2.470706 1.829738 5.959460
C 3.707708 2.552296 5.972157
C 3.708117 3.999957 6.000166
C 2.469837 0.379019 5.941954
C 3.736734 6.756663 6.045084
C 3.731120 8.227481 6.046826
C 2.484960 4.746782 6.014018
C 2.463650 10.265823 6.019276
C 3.706936 12.433826 5.982000
C 2.463261 14.598074 5.949047
C 3.705313 15.324104 5.942154
C 3.706884 16.778509 5.938010
C 2.462372 13.141381 5.969829
C 3.699446 10.995218 6.007461
C 0.000713 0.380506 5.942110
C 2.491746 8.847109 6.038785
N 4.938542 8.876887 6.043047
N 2.529817 6.144064 6.036435
N -0.035076 6.113659 6.041118
N 1.225229 10.978043 6.007835
Co 1.249008 7.501575 6.051524
C 4.947363 1.833141 5.959910
C 6.183493 2.568914 5.973069
C 6.185880 4.025111 6.001779
C 4.938621 4.727477 6.015947
C 4.937522 10.251318 6.021810
C 6.171077 12.419586 5.981748
C 4.946082 14.603159 5.948934
C 6.177026 15.330732 5.941992
C 6.178845 16.782080 5.938041
C 4.944365 13.145916 5.969673
C 7.414786 1.829738 5.959460
C 8.651788 2.552296 5.972157
C 8.652197 3.999957 6.000166
C 7.413917 0.379019 5.941954
C 8.680814 6.756663 6.045084
C 8.675200 8.227481 6.046826
C 7.429040 4.746782 6.014018
C 7.407730 10.265823 6.019276
C 8.651016 12.433826 5.982000
C 7.407341 14.598074 5.949047
C 8.649393 15.324104 5.942154
C 8.650964 16.778509 5.938010
C 7.406452 13.141381 5.969829
C 8.643526 10.995218 6.007461
C 4.944793 0.380506 5.942110
C 7.435826 8.847109 6.038785
N 9.882622 8.876887 6.043047
N 7.473897 6.144064 6.036435
N 4.909004 6.113659 6.041118
N 6.169309 10.978043 6.007835
Co 6.193088 7.501575 6.051524
C 9.891443 1.833141 5.959910
C 11.127573 2.568914 5.973069
C 11.129960 4.025111 6.001779
C 9.882701 4.727477 6.015947
C 9.881602 10.251318 6.021810
C 11.115157 12.419586 5.981748
C 9.890162 14.603159 5.948934
C 11.121106 15.330732 5.941992
C 11.122925 16.782080 5.938041
C 9.888445 13.145916 5.969673
C 12.358866 1.829738 5.959460
C 13.595868 2.552296 5.972157
C 13.596277 3.999957 6.000166
C 12.357997 0.379019 5.941954
C 13.624894 6.756663 6.045084
C 13.619280 8.227481 6.046826
C 12.373120 4.746782 6.014018
C 12.351810 10.265823 6.019276
C 13.595096 12.433826 5.982000
C 12.351421 14.598074 5.949047
C 13.593473 15.324104 5.942154
C 13.595044 16.778509 5.938010
C 12.350532 13.141381 5.969829
C 13.587606 10.995218 6.007461
C 9.888873 0.380506 5.942110
C 12.379906 8.847109 6.038785
N 14.826702 8.876887 6.043047
N 12.417977 6.144064 6.036435
N 9.853084 6.113659 6.041118
N 11.113389 10.978043 6.007835
Co 11.137168 7.501575 6.051524
