32
Title                                   
C 0.558242 0.783449 1.783079
C 9.187907 1.502144 1.802460
C 0.578286 7.902592 1.753845
C 9.166542 2.936078 1.814197
C 0.554777 5.047452 1.795512
C 9.206806 5.771032 1.722416
C 0.554450 3.622841 1.831981
C 9.212104 7.200699 1.714552
C 3.026295 0.738295 1.817921
C 1.803213 1.482185 1.831438
C 3.055194 7.866454 1.830823
C 1.786264 2.900828 1.905054
C 3.015981 5.020082 2.073208
C 1.797470 5.738335 1.855890
C 1.813511 7.161307 1.811558
C 5.494424 0.733316 1.881671
C 4.254828 1.442752 1.896832
C 4.237305 2.866940 2.095286
C 4.282777 7.128800 1.984833
C 7.963447 0.786050 1.788415
C 6.708447 1.475457 1.869071
C 7.979008 7.924029 1.734524
C 6.681814 2.912295 2.005888
C 7.942114 5.106202 1.705263
C 7.917390 3.660598 1.839276
C 6.773821 7.157987 1.710446
C 4.198618 5.742483 2.321173
C 5.433244 3.525477 2.343079
N 6.781832 5.833178 1.615964
N 5.516251 7.846114 1.858341
N 3.002544 3.596709 2.057711
Pd 5.448859 4.999033 3.661794
