31
Title                                   
C 0.015575 1.806903 5.917075
C 1.248108 2.537095 5.938891
C 1.253745 3.981656 5.991613
C 0.007315 4.684353 5.997588
C -0.022343 10.315874 6.046687
C 1.224487 12.469333 5.931331
C -0.003869 14.628293 5.905013
C 1.233971 15.347273 5.900856
C 1.240071 16.780789 5.901796
C -0.009914 13.194070 5.920068
C 2.479670 1.809281 5.920125
C 3.722864 2.514530 5.924321
C 3.730261 3.944768 5.960103
C 2.475571 0.372673 5.904670
C 3.717045 6.701510 6.077126
C 3.697383 8.193837 6.071274
C 2.508268 4.670066 6.020753
C 2.455154 10.315313 5.984019
C 3.696379 12.478617 5.924516
C 2.467902 14.628473 5.900692
C 3.705716 15.347953 5.899967
C 3.711825 16.784965 5.900324
C 2.462384 13.193703 5.910019
C 3.691072 11.042464 5.970872
C 1.218693 11.039654 5.985018
C 0.008068 0.371392 5.903551
C 2.474787 8.889775 6.027229
C 4.907247 8.899472 6.196172
N 2.552057 6.039885 6.128051
N -0.042953 6.067731 6.047734
Cr 1.259958 7.506447 6.593747
