31
Title                                   
C 0.544626 0.755557 1.698974
C 9.178495 1.479371 1.714116
C 0.557045 7.885978 1.710809
C 9.202442 2.903566 1.698326
C 0.564712 5.037523 1.671988
C 9.213820 5.769725 1.741988
C 0.556281 3.615125 1.662733
C 9.193704 7.195336 1.758381
C 3.013743 0.750616 1.856422
C 1.774203 1.451986 1.747381
C 3.036693 7.861185 1.846719
C 1.768522 2.876310 1.725727
C 3.005184 5.008085 1.850835
C 1.791126 5.738578 1.726613
C 2.976255 3.565097 1.876864
C 1.799435 7.165891 1.742110
C 5.469664 0.793822 2.043338
C 4.213534 1.505539 2.013529
C 5.489308 7.899453 2.060602
C 4.238709 5.685390 2.024903
C 4.271388 7.127833 1.986993
C 7.936157 0.792828 1.828048
C 6.701808 1.539455 1.965617
C 7.948652 7.904994 1.861468
C 6.764937 2.969928 2.015502
C 8.016519 5.067015 1.906847
C 6.804015 5.752109 2.233718
C 8.002256 3.633431 1.840586
C 6.734576 7.177174 2.051817
N 4.151525 2.888161 2.108345
Re 5.522041 4.344983 2.848001
