31
Title                                   
C 0.545130 0.763450 1.689788
C 9.175031 1.489622 1.713128
C 0.564442 7.890967 1.689768
C 9.191028 2.919601 1.700923
C 0.559303 5.037858 1.651391
C 9.213200 5.777269 1.727314
C 0.550727 3.616388 1.651362
C 9.204351 7.201980 1.745629
C 3.016861 0.747823 1.855198
C 1.774687 1.452321 1.745016
C 3.043064 7.857130 1.827416
C 1.766341 2.876917 1.725944
C 3.001170 5.002180 1.841347
C 1.788424 5.734889 1.699223
C 2.971720 3.559116 1.904606
C 1.804134 7.165012 1.712233
C 5.476631 0.779317 2.068795
C 4.214300 1.490067 2.049733
C 5.502631 7.874877 2.068970
C 4.230676 5.681775 2.003488
C 4.275592 7.116737 1.974269
C 7.936281 0.797177 1.828138
C 6.703732 1.537363 1.974657
C 7.962379 7.906523 1.855892
C 6.748725 2.972433 2.005062
C 8.008056 5.095109 1.907049
C 7.978237 3.652037 1.844084
C 6.764981 7.164357 2.050621
N 4.138762 2.875454 2.206475
N 6.841266 5.779031 2.208587
Mo 5.489513 4.327266 2.893193
