32
Title                                   
C 0.006011 1.782717 5.641902
C 1.242440 2.492206 5.744714
C 1.242284 3.894842 6.000381
C 0.012444 5.981755 6.461181
C 0.000240 4.592262 6.130762
C -0.006565 10.394284 6.174164
C 1.242682 12.500330 5.824609
C 0.006850 14.633462 5.543051
C 1.241474 15.351772 5.509349
C 1.241895 16.775226 5.494159
C 0.006652 13.214453 5.686659
C 2.478448 1.781698 5.642939
C 3.713889 2.489650 5.729960
C 3.713563 3.896547 5.970570
C 2.478803 0.360856 5.518356
C 2.472263 5.982433 6.475858
C 3.714151 6.748015 6.572328
C 3.703387 8.252742 6.559293
C 2.483697 4.594277 6.135840
C 2.495530 10.405117 6.274681
C 3.711457 12.514716 5.777358
C 2.476629 14.635976 5.550044
C 3.714201 15.346984 5.499653
C 3.714486 16.775837 5.486873
C 2.475636 13.219276 5.701310
C 3.710052 11.110098 6.018846
C 1.245774 11.106378 6.114565
C 0.005654 0.361433 5.517225
C 2.521023 9.038358 6.692919
C 4.896020 8.997682 6.385206
N 1.243235 6.570041 6.719700
Sc 1.053028 8.245901 7.896846
