32
Title                                   
C 0.555171 0.798178 1.817615
C 9.177106 1.502873 1.829802
C 0.555057 7.905088 1.813973
C 9.171030 2.925388 1.856454
C 0.555020 5.049046 1.824557
C 9.193297 5.747236 1.835866
C 0.554945 3.622951 1.849592
C 9.190860 7.182765 1.825329
C 3.018870 0.764794 1.808906
C 1.802574 1.502426 1.824541
C 3.025585 7.895931 1.818287
C 1.808078 2.925074 1.853165
C 3.037911 5.076022 1.896848
C 1.786565 5.747066 1.833772
C 1.788911 7.182947 1.820942
C 5.489646 0.723656 1.882090
C 4.261610 1.453614 1.864033
C 4.293191 2.873753 1.956281
C 4.229200 7.142305 1.876997
C 7.961178 0.765009 1.817977
C 6.718155 1.453664 1.872938
C 7.954729 7.896399 1.826403
C 6.686189 2.874193 1.963160
C 7.942281 5.076001 1.903113
C 6.751204 7.142854 1.885226
N 4.197359 5.784736 1.990025
N 5.488852 3.516143 2.163563
N 6.784106 5.785537 2.002905
N 5.489913 7.829358 1.874442
N 3.071500 3.634868 1.883319
N 7.908218 3.635403 1.889675
Ir 5.485452 4.995913 3.551704
