32
Title                                   
C -0.000528 1.788385 5.506254
C 1.235550 2.494370 5.623506
C 1.235624 3.889486 5.938624
C 0.011030 5.934378 6.574574
C -0.006355 4.578329 6.108027
C -0.022532 10.436643 6.366561
C 1.235477 12.508939 5.849943
C 0.001860 14.638344 5.486750
C 1.235510 15.353117 5.419228
C 1.235443 16.779217 5.363681
C 0.002919 13.225679 5.695157
C 2.471573 1.788374 5.506294
C 3.707529 2.494752 5.605881
C 3.707639 3.894377 5.896667
C 2.471805 0.364170 5.379058
C 2.460193 5.934349 6.574617
C 3.707667 6.706659 6.700399
C 3.707650 8.205804 6.737127
C 2.477486 4.578295 6.108052
C 2.493548 10.436622 6.366667
C 3.707500 12.536525 5.819331
C 2.469222 14.638320 5.486782
C 3.707519 15.347761 5.415902
C 3.707441 16.778358 5.360699
C 2.468059 13.225728 5.695208
C 3.707605 11.153618 6.146584
C 1.235494 11.122001 6.196022
C -0.000831 0.364207 5.378995
C 2.576011 9.086704 6.761516
C 4.839115 9.086654 6.761180
N 1.235601 6.459948 6.930179
Cu 1.235507 8.217208 7.691835
