31
Title                                   
C 0.555162 0.760157 1.850562
C 9.191054 1.471200 1.859033
C 0.554947 7.894562 1.850613
C 9.204674 2.892338 1.917987
C 0.554953 5.041145 1.946696
C 9.204459 5.762084 1.917741
C 0.555046 3.613279 1.946508
C 9.190771 7.183297 1.858959
C 3.027290 0.768195 1.808864
C 1.788763 1.471274 1.858873
C 3.027200 7.886153 1.809100
C 1.774800 2.892316 1.918823
C 2.996241 5.048935 1.916936
C 1.774735 5.762249 1.919317
C 2.996356 3.605322 1.916549
C 1.788505 7.183320 1.859407
C 5.490055 0.765746 1.808371
C 4.261745 1.500785 1.818109
C 5.490054 7.888305 1.808137
C 4.233906 2.920969 1.902674
C 4.233792 5.733415 1.903225
C 4.261699 7.153422 1.818201
C 7.952331 0.768166 1.810159
C 6.717904 1.501420 1.820307
C 7.952155 7.885953 1.809820
C 6.745692 2.921884 1.905683
C 7.983326 5.048858 1.916051
C 6.745455 5.732362 1.904970
C 7.983429 3.605424 1.916445
C 6.717842 7.152783 1.819694
W 5.487031 4.326725 2.701487
