32
Title                                   
C 0.546454 0.784971 1.708621
C 9.181313 1.499623 1.724078
C 0.565748 7.903927 1.702001
C 9.167133 2.930193 1.775792
C 0.563616 5.056237 1.749600
C 9.208868 5.765808 1.735967
C 0.546940 3.621121 1.784889
C 9.206009 7.191272 1.712834
C 3.009481 0.750543 1.799749
C 1.789896 1.481244 1.763972
C 1.788285 2.904780 1.832799
C 3.012327 5.048519 2.093028
C 1.799100 5.765088 1.829067
C 3.028645 3.607745 2.000204
C 1.795896 7.190380 1.777462
C 5.486582 0.733709 1.879131
C 5.473257 7.880100 2.015382
C 4.247128 2.843983 1.969671
C 4.213762 7.177886 2.138864
C 7.950503 0.769264 1.727390
C 6.699109 1.457003 1.790427
C 7.966805 7.909342 1.744756
C 6.680743 2.874957 1.875156
C 7.963949 5.092667 1.856382
C 7.898954 3.647140 1.850390
C 6.746437 7.189059 1.925326
C 4.146066 5.827619 2.441201
N 5.440334 3.465550 2.055359
N 6.815571 5.832590 2.061248
N 3.015448 7.909996 1.833405
N 4.222768 1.430830 1.865185
Y 5.756638 4.868045 3.694162
