31
Title                                   
C 0.549299 0.753030 1.666298
C 9.187760 1.469306 1.723321
C 0.555603 7.887404 1.672805
C 9.211112 2.893589 1.711061
C 0.558102 5.038156 1.632542
C 9.208586 5.762479 1.726478
C 0.557928 3.616150 1.625112
C 9.190136 7.183796 1.736785
C 3.012920 0.766662 1.837746
C 1.779529 1.462587 1.705617
C 3.023381 7.883724 1.839388
C 1.773267 2.886027 1.682530
C 2.998224 5.034223 1.854355
C 1.782933 5.747207 1.690829
C 2.982194 3.576212 1.856345
C 1.793003 7.175195 1.709811
C 5.479429 0.788932 2.105040
C 4.216284 1.520397 2.021030
C 5.480455 7.908268 2.108479
C 4.200322 5.737438 2.079838
C 4.241016 7.153663 2.021466
C 7.954637 0.770962 1.870797
C 6.740407 1.517819 2.066347
C 7.956021 7.889484 1.881142
C 6.811531 2.921750 2.180032
C 8.010024 5.056196 1.943140
C 6.798827 5.744527 2.193393
C 8.016301 3.604792 1.933458
C 6.735878 7.158798 2.083209
N 4.150862 2.894822 2.077193
Mn 5.485403 4.338450 2.583714
