31
Title                                   
C -0.007379 1.814602 5.960233
C 1.222661 2.551947 5.973671
C 1.219342 3.988629 6.002211
C -0.018049 4.731735 6.016408
C 0.014344 10.286532 6.024771
C 1.252793 12.435076 5.981951
C 0.005466 14.608293 5.946241
C 1.239899 15.338755 5.938547
C 1.235667 16.778130 5.936009
C 0.009552 13.164545 5.968606
C 2.466074 1.822509 5.960045
C 3.704882 2.540084 5.971962
C 3.698346 3.984759 5.999824
C 2.470362 0.378841 5.941436
C 3.699600 6.753488 6.046368
C 3.718877 8.233441 6.049705
C 2.460813 4.700706 6.013534
C 2.493048 10.255119 6.022280
C 3.714813 12.446879 5.980427
C 2.478139 14.612665 5.945572
C 3.712703 15.335813 5.938166
C 3.707226 16.780824 5.935707
C 2.483033 13.172331 5.967713
C 3.720845 11.002316 6.008392
C 1.255942 10.998498 6.010069
C -0.002436 0.374709 5.941470
C -0.008641 8.871504 6.048466
C 2.483128 6.115503 6.036404
N 2.518950 8.861822 6.041506
N -0.044635 6.124799 6.042275
Ni 1.237050 7.493295 6.051233
