31
Title                                   
C 0.005655 1.795937 5.947325
C 1.237489 2.528964 5.962776
C 1.237449 3.965583 5.999786
C -0.020858 4.657507 6.020718
C -0.006437 10.338981 6.036582
C 1.237683 12.481290 5.980544
C 0.001179 14.632991 5.939989
C 1.237591 15.348022 5.932527
C 1.237553 16.776786 5.926703
C 0.001202 13.202612 5.964136
C 2.469315 1.795985 5.945855
C 3.709535 2.494513 5.959111
C 3.709531 3.918112 5.993214
C 2.470558 0.365204 5.929073
C 3.709878 6.682536 6.056397
C 3.710044 8.210018 6.061095
C 2.495735 4.657596 6.011319
C 2.481684 10.338962 6.032106
C 3.709758 12.492982 5.979680
C 2.473854 14.632865 5.939563
C 3.709486 15.348861 5.932524
C 3.709463 16.782005 5.926915
C 2.474164 13.202565 5.963488
C 3.709634 11.063636 6.015905
C 1.237581 11.052509 6.017388
C 0.004365 0.365109 5.929681
C 2.518010 8.923451 6.054328
C 4.901888 8.923674 6.065983
N 2.556795 6.017842 6.034956
N -0.081397 6.017294 6.065374
Pd 1.238110 7.543756 6.076159
