32
Title                                   
C 0.550592 0.787354 1.727178
C 9.175850 1.501226 1.765697
C 0.557146 7.895036 1.701483
C 9.169747 2.920762 1.825397
C 0.552838 5.043412 1.733572
C 9.193980 5.743233 1.747236
C 0.549075 3.617402 1.811666
C 9.192899 7.180216 1.731280
C 3.012009 0.762280 1.764980
C 1.793588 1.490038 1.769390
C 3.029941 7.893886 1.778887
C 1.791570 2.907008 1.842792
C 3.016529 5.046470 1.981863
C 1.785873 5.732874 1.763568
C 1.797789 7.171442 1.733482
C 5.493122 0.739127 1.927428
C 4.252366 1.447505 1.876117
C 4.268720 2.859165 2.000898
C 4.238150 7.172559 1.994487
C 7.962266 0.767744 1.765734
C 6.723123 1.462243 1.871514
C 7.959575 7.904442 1.777772
C 6.689057 2.866961 1.976466
C 7.955889 5.075626 1.909840
C 6.755617 7.178037 1.955267
C 4.164503 5.799014 2.297406
N 5.474505 3.486340 2.250175
N 6.827039 5.821897 2.179521
N 5.502878 7.860567 1.978002
N 3.050040 3.605147 1.952528
N 7.900198 3.639704 1.901528
V 5.547287 5.032474 3.420344
