32
Title                                   
C 0.557566 0.774076 1.655520
C 9.191423 1.482066 1.737853
C 0.560048 7.891537 1.618020
C 9.184572 2.907304 1.846357
C 0.551505 5.039655 1.729924
C 9.198125 5.748576 1.757420
C 0.563117 3.615954 1.802619
C 9.189323 7.179849 1.670729
C 3.016549 0.755578 1.687050
C 1.799230 1.490740 1.703033
C 3.030143 7.891838 1.685331
C 1.797596 2.907301 1.811080
C 3.018253 5.045285 1.945490
C 1.793389 5.737825 1.704617
C 1.797856 7.164126 1.644726
C 5.481133 0.744633 1.873192
C 4.246882 1.453097 1.819053
C 4.254072 2.866827 2.034032
C 4.235668 7.168978 1.934293
C 7.963733 0.765116 1.738974
C 6.719487 1.451252 1.880833
C 7.956973 7.903932 1.712577
C 6.701694 2.859749 2.097807
C 7.968012 5.059453 2.013329
C 7.948999 3.613682 2.030201
C 6.735271 7.189014 1.943761
C 4.180853 5.793355 2.256299
C 5.453519 3.497023 2.364381
C 6.797231 5.831747 2.251207
N 5.482515 7.879358 1.941575
N 3.023484 3.612295 1.962062
Y 5.535542 5.089969 3.860154
