32
Title                                   
C -0.000288 1.787048 5.934119
C 1.235539 2.509419 5.969718
C 1.235626 3.943710 6.073508
C 0.033850 6.067445 6.305761
C -0.006144 4.663099 6.106868
C -0.030569 10.277888 5.780424
C 1.235560 12.426973 5.859926
C 0.003172 14.597164 5.889759
C 1.235597 15.320360 5.896181
C 1.235569 16.760225 5.907305
C 0.006894 13.155888 5.873745
C 2.471485 1.786984 5.934205
C 3.707616 2.512482 5.943976
C 3.707557 3.938058 6.007930
C 2.472027 0.350700 5.910771
C 2.437216 6.067539 6.305883
C 3.707855 8.235633 5.934909
C 2.477341 4.663202 6.107032
C 2.501681 10.278110 5.780895
C 3.707675 12.449329 5.864227
C 2.468070 14.597139 5.889834
C 3.707677 15.316616 5.894588
C 3.707673 16.754340 5.902461
C 2.464430 13.155814 5.873883
C 3.707661 11.024470 5.836265
C 1.235531 10.956676 5.791583
C -0.000913 0.350759 5.910698
N 2.533223 8.853659 5.773989
N 4.882635 8.852830 5.768028
N 1.235518 6.694765 6.578378
N 3.707742 6.828638 6.282189
Y 1.232826 8.870359 7.562263
