31
Title                                   
C 0.006487 1.814165 5.930808
C 1.237950 2.545165 5.936941
C 1.240032 3.997315 5.983914
C 0.003944 4.713590 6.072731
C -0.035998 10.274448 6.072758
C 1.209695 12.447229 5.953464
C -0.010552 14.621018 5.937266
C 1.227379 15.339889 5.928518
C 1.233374 16.780843 5.920866
C -0.015968 13.180185 5.951769
C 2.473024 1.820230 5.909062
C 3.717445 2.533557 5.916719
C 3.725236 3.970614 5.939400
C 2.468794 0.377809 5.909270
C 3.724627 6.756680 6.019904
C 3.698234 8.192650 5.987653
C 2.492058 4.679298 5.919063
C 2.443687 10.304022 5.876420
C 3.696548 12.454719 5.929185
C 2.460009 14.611184 5.921365
C 3.697800 15.340063 5.922199
C 3.703301 16.781432 5.914509
C 2.453769 13.170729 5.921996
C 3.691710 11.017336 5.932721
C 1.197126 11.004120 5.986815
C -0.000729 0.372348 5.922320
C 2.487892 8.903446 5.766514
N 4.888700 8.878749 6.327917
N 2.533640 6.059327 5.878252
N -0.033270 6.098818 6.309838
Ta 1.470550 7.517170 6.801039
