31
Title                                   
C 0.000670 1.775677 5.929371
C 1.237713 2.492755 5.944483
C 1.237623 3.910072 5.994082
C -0.001713 4.627075 6.008579
C -0.001393 10.359677 6.018552
C 1.237874 12.494768 5.961205
C 0.001098 14.635106 5.935042
C 1.237644 15.347499 5.931509
C 1.237574 16.769681 5.924937
C 0.000749 13.211951 5.945450
C 2.474361 1.775580 5.929565
C 3.709745 2.482279 5.934320
C 3.709786 3.905263 5.972760
C 2.474204 0.352409 5.923749
C 3.709462 6.752456 5.951469
C 3.709418 8.235038 5.954352
C 2.476743 4.626835 6.009127
C 2.476511 10.359671 6.018986
C 3.709890 12.504886 5.950088
C 2.474359 14.635049 5.935081
C 3.709705 15.345969 5.929084
C 3.709823 16.771162 5.922566
C 2.474628 13.212061 5.945469
C 3.709704 11.081488 5.985302
C 1.237466 11.077251 6.006852
C 0.001180 0.352270 5.923790
C 2.522454 8.956888 6.069798
C 4.896638 8.956850 6.068584
C 2.522967 6.029453 6.064461
C -0.047875 6.029441 6.063518
Pd 1.237488 7.491588 6.549069
