32
Title                                   
C 0.552140 0.786351 1.724316
C 9.176178 1.499626 1.762211
C 0.558551 7.893718 1.700826
C 9.169492 2.920901 1.818465
C 0.552341 5.043351 1.728472
C 9.188993 5.743796 1.736066
C 0.548649 3.617268 1.801251
C 9.192148 7.180284 1.729637
C 3.016201 0.761369 1.761725
C 1.795923 1.487937 1.762708
C 3.035738 7.891346 1.770129
C 1.794235 2.906810 1.831834
C 3.020748 5.040692 1.960190
C 1.788284 5.732118 1.755102
C 1.800247 7.171373 1.728114
C 5.493783 0.738672 1.918735
C 4.254435 1.451278 1.870214
C 4.269834 2.864088 1.988569
C 4.247531 7.170518 1.975451
C 7.960406 0.768925 1.764353
C 6.721845 1.467732 1.858809
C 7.956086 7.902122 1.778166
C 6.687527 2.873774 1.950749
C 7.949655 5.073929 1.880908
C 6.752496 7.174705 1.952185
C 4.175033 5.791200 2.298688
N 5.476337 3.502190 2.255211
N 6.814954 5.809496 2.182175
N 5.503840 7.861104 1.976672
N 3.048391 3.605452 1.945805
N 7.903904 3.639552 1.895986
Ta 5.527837 5.039515 3.649775
