25
Title                                   
C 7.787403 1.761942 1.909026
C 7.764974 4.285247 1.906260
C 7.776219 6.818672 1.909219
C 1.686017 0.728170 1.909647
C 0.653296 1.760854 1.909304
C 1.687051 7.862509 1.909793
C 1.330190 5.550690 1.907437
C 0.664666 4.294439 1.906705
C 1.346894 3.021504 1.906657
C 0.641934 6.817593 1.909501
C 4.219154 0.739585 1.907240
C 2.946595 1.421879 1.907031
C 4.209882 7.840071 1.907341
C 2.953888 7.174240 1.907758
C 6.742266 0.717030 1.909338
C 5.475294 1.405189 1.906996
C 6.743287 7.851387 1.909443
C 7.082983 5.558152 1.906193
C 7.099221 3.028952 1.906343
C 5.482629 7.158094 1.906651
C 2.760721 5.743821 1.905513
C 5.668738 2.835383 1.904223
N 2.741702 2.816243 1.903680
N 5.688478 5.763600 1.903356
Re 4.217060 4.290765 1.899444
