31
Title                                   
C 0.006258 1.797834 5.941405
C 1.236394 2.534696 5.960769
C 1.234981 3.978550 6.030012
C -0.017603 4.674653 6.119660
C -0.006936 10.330715 6.092079
C 1.231575 12.453286 5.937674
C 0.004166 14.618255 5.911253
C 1.235986 15.341188 5.899943
C 1.237327 16.773341 5.900523
C 0.001756 13.183842 5.935306
C 2.471056 1.802828 5.918660
C 3.713750 2.505634 5.941908
C 3.717121 3.933944 5.994220
C 2.471375 0.366586 5.897434
C 3.702380 6.704011 6.103788
C 3.705485 8.233996 6.076445
C 2.495432 4.660722 5.977366
C 2.468227 10.344192 5.914572
C 3.707830 12.481228 5.923648
C 2.466097 14.616148 5.894123
C 3.707187 15.334252 5.896578
C 3.708354 16.772877 5.896946
C 2.466081 13.180023 5.901816
C 3.707345 11.064300 5.957017
C 0.003036 0.362759 5.910921
C 2.502879 8.936521 5.900964
C -0.029169 8.920257 6.311136
N 2.563306 6.026615 5.915658
N -0.088049 6.048527 6.339730
N 1.227041 11.049918 5.984092
Ir 1.291745 7.526451 6.315554
