31
Title                                   
C 0.007026 1.790098 5.947335
C 1.237369 2.516749 5.961490
C 1.237464 3.958296 5.996995
C -0.017084 4.644665 6.018185
C -0.001964 10.347973 6.035583
C 1.237681 12.484694 5.981912
C 0.002141 14.634188 5.941474
C 1.237435 15.349223 5.933992
C 1.237464 16.774146 5.929340
C 0.001687 13.208701 5.966259
C 2.467764 1.790123 5.946439
C 3.709429 2.489843 5.958697
C 3.709522 3.909760 5.993224
C 2.470473 0.361259 5.930847
C 3.710026 6.677641 6.059891
C 3.709989 8.197493 6.067647
C 2.492202 4.644848 6.011721
C 2.477404 10.347909 6.032037
C 3.709637 12.500650 5.981878
C 2.472815 14.634272 5.941221
C 3.709534 15.349126 5.932183
C 3.709506 16.779464 5.927153
C 2.473533 13.208679 5.965672
C 3.709716 11.072940 6.017031
C 1.237693 11.068455 6.016248
C 0.004431 0.361314 5.931345
C 2.536653 8.949658 6.055005
C 4.883259 8.949820 6.064455
N 2.560506 6.009280 6.038899
N -0.084699 6.008771 6.061588
Ag 1.237882 7.538110 6.055454
