32
Title                                   
C 0.001441 1.787595 5.827666
C 1.237903 2.508379 5.880880
C 1.233189 3.930290 6.006511
C 0.004588 6.033993 6.230784
C -0.010430 4.644307 6.034479
C 0.006182 10.257767 6.014793
C 1.260422 12.443550 5.896417
C 0.021743 14.607794 5.796859
C 1.254172 15.331507 5.785645
C 1.247401 16.764266 5.777388
C 0.030086 13.178545 5.847827
C 2.474454 1.785921 5.834199
C 3.705546 2.509850 5.857954
C 3.696811 3.935851 5.949246
C 2.481332 0.354248 5.786811
C 2.436893 6.071488 6.271202
C 3.772020 8.213828 6.204422
C 2.464971 4.660342 6.069491
C 2.530675 10.341648 6.157329
C 3.736861 12.467118 5.910261
C 2.488477 14.608230 5.810352
C 3.724214 15.328107 5.785803
C 3.718702 16.761465 5.774056
C 2.491378 13.173070 5.876507
C 3.735477 11.054797 6.033213
C 1.274889 10.996347 5.979468
C 0.008640 0.357181 5.782179
C 2.637557 8.945669 6.577407
N 4.875667 8.858503 5.524916
N 1.199148 6.713710 6.538162
N 3.707489 6.767414 6.231808
Ta 0.809435 8.654544 7.397263
