32
Title                                   
C 0.559480 0.775569 1.679221
C 9.190981 1.477839 1.741348
C 0.550631 7.896184 1.673414
C 9.191690 2.905917 1.829041
C 0.559054 5.038099 1.755236
C 9.196696 5.747413 1.811587
C 0.564260 3.618223 1.783560
C 9.186597 7.172261 1.738082
C 3.019141 0.770606 1.731261
C 1.797317 1.491959 1.718922
C 3.017908 7.902990 1.733162
C 1.809819 2.924738 1.794710
C 3.011358 5.081673 1.962255
C 1.784087 5.760595 1.764899
C 3.048254 3.638552 1.950042
C 1.782940 7.184893 1.709712
C 5.486325 0.729605 1.905006
C 4.260710 1.451628 1.861399
C 4.275755 2.871542 2.039581
C 5.505240 3.490273 2.343523
C 4.223250 7.182896 1.938788
C 7.967823 0.752717 1.768087
C 6.728385 1.433941 1.901762
C 7.948151 7.884479 1.772885
C 6.735519 2.849603 2.092995
C 7.982668 5.048322 2.064501
C 6.806103 5.808151 2.347314
C 7.967081 3.604545 2.026801
C 6.733713 7.164956 1.996480
N 4.152484 5.850684 2.231372
N 5.473251 7.857504 1.958087
V 5.417090 5.042832 3.448467
