32
Title                                   
C -0.000626 1.789649 5.622411
C 1.235242 2.506267 5.698680
C 1.235845 3.925865 5.910569
C 0.008101 6.020550 6.378043
C -0.004754 4.632703 6.024598
C -0.022479 10.372500 6.270246
C 1.235668 12.463397 5.863192
C 0.001423 14.613397 5.602590
C 1.234962 15.334565 5.565800
C 1.234755 16.767907 5.535297
C 0.002952 13.185184 5.737813
C 2.470834 1.789612 5.622290
C 3.707228 2.507685 5.683573
C 3.707749 3.926532 5.869877
C 2.470884 0.357727 5.543898
C 2.464506 6.020969 6.378650
C 3.708396 6.805628 6.492930
C 3.707880 8.284561 6.557405
C 2.476544 4.632785 6.024595
C 2.495256 10.373093 6.276202
C 3.707489 12.483088 5.807784
C 2.468757 14.613640 5.603008
C 3.707119 15.331131 5.558229
C 3.706917 16.765728 5.529918
C 2.468000 13.185349 5.738648
C 3.707964 11.073716 6.049996
C 1.236452 11.048804 6.156106
C -0.001239 0.357941 5.543900
N 2.560876 9.038687 6.673844
N 4.856730 9.037880 6.660342
N 1.236405 6.580521 6.691003
Tc 1.231495 8.220262 7.779862
