32
Title                                   
C 0.557117 0.792332 1.738218
C 9.186196 1.496192 1.796332
C 0.560390 7.904666 1.714205
C 9.170683 2.924552 1.880290
C 0.550684 5.043169 1.781305
C 9.203300 5.758086 1.817443
C 0.567497 3.618535 1.840322
C 9.199679 7.190043 1.760281
C 3.012274 0.757830 1.742721
C 1.802387 1.499703 1.763891
C 3.022036 7.895257 1.749676
C 1.806345 2.919686 1.836019
C 3.023094 5.069276 1.899811
C 1.783415 5.744093 1.759935
C 1.788946 7.173526 1.728610
C 5.483090 0.712874 1.906816
C 4.257746 1.433062 1.848065
C 4.284531 2.848614 1.992140
C 4.215290 7.149867 1.904248
C 7.965359 0.770316 1.789802
C 6.714048 1.437415 1.903674
C 7.966362 7.905102 1.781806
C 6.682105 2.848392 2.067153
C 7.966828 5.086156 2.027143
C 7.915388 3.633992 2.020630
C 6.765420 7.170787 1.959537
N 4.148699 5.808389 2.103644
N 5.456897 3.455086 2.288560
N 6.842393 5.852937 2.253280
N 5.492332 7.830096 1.931770
N 3.072845 3.624918 1.910231
Co 5.470385 5.056240 3.215941
