32
Title                                   
C 0.551744 0.766200 1.657826
C 9.191637 1.479812 1.679328
C 0.562882 7.884082 1.662509
C 9.187548 2.910243 1.737710
C 0.556919 5.055743 1.723776
C 0.552406 3.626421 1.730223
C 9.202177 7.163291 1.707883
C 3.018173 0.761713 1.750102
C 1.795288 1.477348 1.713285
C 1.792552 2.910102 1.776991
C 2.998523 5.032277 2.027065
C 1.786152 5.766239 1.784381
C 3.018112 3.603907 1.969928
C 1.801747 7.189762 1.724137
C 5.484085 0.750519 1.853834
C 5.472413 7.891278 1.986029
C 4.252518 2.853384 2.050600
C 4.220211 7.184813 2.063777
C 7.960482 0.754528 1.707845
C 6.716174 1.464017 1.800665
C 7.963395 7.882103 1.755481
C 6.734339 2.886721 1.973847
C 7.990713 5.062358 1.990054
C 7.967059 3.619611 1.901701
C 6.732797 7.191125 2.000256
C 4.115321 5.836616 2.341079
C 5.481547 3.457995 2.268490
C 6.862087 5.818844 2.283554
N 3.013396 7.909026 1.768043
N 4.232269 1.436477 1.841552
N 9.209067 5.755048 1.744329
Au 5.510028 5.029588 3.737220
