32
Title                                   
C 0.555059 0.769388 1.626319
C 9.187050 1.479309 1.677079
C 0.555005 7.892486 1.629565
C 9.180843 2.911562 1.755100
C 0.554972 5.037439 1.704813
C 9.192352 5.751335 1.753298
C 0.554844 3.618891 1.721693
C 9.187726 7.177852 1.688845
C 3.015024 0.763730 1.713745
C 1.792477 1.479317 1.676689
C 3.027055 7.892605 1.732063
C 1.798311 2.911495 1.754992
C 3.000873 5.055557 2.003706
C 1.787147 5.751325 1.752825
C 3.020871 3.612012 1.961144
C 1.791708 7.177811 1.688316
C 5.489762 0.738687 1.878040
C 4.253952 1.450372 1.854224
C 4.253019 2.861142 2.053808
C 4.163960 5.827598 2.332686
C 5.489624 3.478130 2.377577
C 4.246500 7.191579 1.967741
C 7.964578 0.763703 1.714357
C 6.725720 1.450466 1.854593
C 7.952377 7.892665 1.732882
C 6.726396 2.861194 2.054152
C 7.978975 5.055525 2.004435
C 6.816425 5.827748 2.333465
C 7.958436 3.612073 1.961418
C 6.732946 7.191652 1.968503
N 5.489718 7.886291 1.948238
Ru 5.490059 5.040255 3.437187
