32
Title                                   
C 0.552368 0.763931 1.733179
C 9.194772 1.480367 1.743651
C 0.561965 7.883075 1.745111
C 9.191618 2.911166 1.774151
C 0.553831 5.054506 1.778945
C 0.550520 3.628305 1.768791
C 9.202829 7.165924 1.782696
C 3.021006 0.758202 1.799059
C 1.794805 1.473831 1.763644
C 1.790091 2.903695 1.798950
C 3.000659 5.023327 1.996385
C 1.783423 5.766485 1.832253
C 3.014357 3.601595 1.946934
C 1.801933 7.185780 1.793361
C 5.488468 0.758860 1.868252
C 5.477021 7.897979 1.963800
C 4.249653 2.858129 2.020052
C 4.231228 7.182654 2.030150
C 7.964537 0.757541 1.775578
C 6.717768 1.467695 1.841378
C 7.965654 7.886285 1.821134
C 6.741456 2.893349 1.967890
C 7.982706 5.060270 1.987472
C 7.967985 3.619486 1.903358
C 6.726045 7.198668 1.995206
C 4.158970 5.809732 2.238310
C 5.480304 3.491472 2.209863
C 6.822972 5.803618 2.233288
N 3.016363 7.906893 1.828616
N 4.235373 1.441674 1.858201
N 9.203532 5.758136 1.801310
Co 5.489551 5.018559 3.112532
