31
Title                                   
C 0.549848 0.763551 1.671994
C 9.182607 1.485323 1.708116
C 0.559900 7.891130 1.671867
C 9.198762 2.914203 1.705732
C 0.556510 5.038808 1.648372
C 9.208556 5.769118 1.715721
C 0.553682 3.615627 1.648274
C 9.203101 7.193590 1.722522
C 3.014568 0.756323 1.836882
C 1.775834 1.461114 1.724143
C 3.028175 7.873810 1.821700
C 1.771004 2.885467 1.717710
C 3.003684 5.026207 1.881453
C 1.780688 5.740337 1.708007
C 2.986033 3.563595 1.906137
C 1.796388 7.169353 1.709749
C 5.484358 0.773614 2.063514
C 4.214887 1.494654 2.027515
C 5.494651 7.880482 2.063846
C 4.204487 5.726103 2.070900
C 4.248894 7.138802 1.994382
C 7.950812 0.780476 1.819114
C 6.729941 1.515310 1.990794
C 7.964317 7.898067 1.834549
C 6.774580 2.928168 2.064438
C 7.993708 5.090541 1.901744
C 7.975439 3.628070 1.876406
C 6.764239 7.159401 2.024993
N 4.149967 2.874256 2.143094
N 6.829854 5.779828 2.138031
Sc 5.491901 4.326714 3.007600
