31
Title                                   
C 0.555480 0.756653 1.557259
C 9.191275 1.468668 1.633069
C 0.555286 7.897831 1.557325
C 9.213158 2.890677 1.617943
C 0.555571 5.036350 1.506348
C 9.212994 5.763977 1.618165
C 0.555624 3.618329 1.506004
C 9.190912 7.185990 1.633189
C 3.009197 0.763533 1.847115
C 1.788859 1.468660 1.640549
C 3.009097 7.890301 1.847541
C 1.766900 2.890972 1.627856
C 2.936914 5.051330 1.936914
C 1.766834 5.763610 1.628457
C 2.937118 3.602595 1.936381
C 1.788533 7.185678 1.641046
C 5.490081 0.756633 2.207690
C 4.219357 1.488007 2.134956
C 5.489955 7.897590 2.208029
C 4.092755 2.868374 2.261559
C 4.092599 5.785522 2.262413
C 4.219250 7.165874 2.135644
C 7.970059 0.763954 1.836992
C 6.759878 1.488394 2.124966
C 7.969849 7.890709 1.837133
C 6.885596 2.869429 2.244731
C 8.041086 5.051618 1.918252
C 6.885432 5.784938 2.244639
C 8.041267 3.602879 1.918547
C 6.759691 7.166104 2.125122
Cd 5.490767 4.326863 2.623465
