32
Title                                   
C 0.546735 0.766119 1.687183
C 9.185996 1.492059 1.703296
C 0.567474 7.882483 1.701224
C 9.180457 2.915862 1.747086
C 0.556282 5.049643 1.736350
C 0.545608 3.619113 1.738249
C 9.207990 7.176241 1.750359
C 3.015844 0.751787 1.752669
C 1.789156 1.468582 1.726102
C 1.779115 2.896369 1.774991
C 2.988859 5.022489 2.003937
C 1.778595 5.755363 1.788645
C 3.014660 3.588159 1.957063
C 1.801854 7.185754 1.744715
C 5.486446 0.748887 1.839354
C 5.486870 7.867323 1.949184
C 4.233204 2.836371 2.044057
C 4.218942 7.178553 2.010775
C 7.954232 0.764132 1.723930
C 6.711509 1.468806 1.803494
C 7.975925 7.895255 1.777726
C 6.716809 2.893509 1.991483
C 8.004441 5.079538 1.961686
C 7.941421 3.646389 1.908068
C 6.755539 7.196225 1.980810
C 4.137611 5.812948 2.285419
C 5.456280 3.467992 2.311780
N 6.897851 5.836880 2.307448
N 3.023399 7.905116 1.772831
N 4.232676 1.425100 1.832480
N 9.203397 5.753509 1.773267
Hf 5.538587 5.064635 3.627838
