31
Title                                   
C -0.022998 1.802446 5.936672
C 1.201143 2.535044 5.937934
C 1.183563 3.979556 5.973740
C -0.053025 4.705822 6.058067
C 0.042195 10.287144 6.052129
C 1.258225 12.447418 5.930450
C 0.010697 14.609881 5.917081
C 1.238101 15.334103 5.916522
C 1.226689 16.775070 5.920726
C 0.022079 13.164203 5.921949
C 2.446635 1.810967 5.910811
C 3.687303 2.526941 5.917305
C 3.676933 3.964318 5.926240
C 2.458541 0.370574 5.913631
C 3.666689 6.792214 6.001050
C 3.720984 8.239607 6.062737
C 2.428288 4.683443 5.879897
C 2.509930 10.318274 5.943622
C 3.728227 12.461344 5.911842
C 2.472138 14.610401 5.908747
C 3.709659 15.327961 5.912555
C 3.698399 16.769960 5.916583
C 2.484329 13.165382 5.910355
C 3.742886 11.035256 5.934195
C -0.012491 0.362157 5.926679
C 0.018294 8.892050 6.257558
C 2.468888 6.087097 5.771751
N 2.511925 8.949840 5.976293
N -0.082433 6.098590 6.316626
N 1.272094 11.008780 5.973627
Ta 1.428528 7.442304 6.863824
