32
Title                                   
C 0.555050 0.769070 1.603062
C 9.190096 1.480258 1.648888
C 0.554903 7.889270 1.618054
C 9.185731 2.905618 1.702156
C 0.554996 5.034698 1.658226
C 9.198796 5.749858 1.727642
C 0.554960 3.615411 1.662083
C 9.194720 7.178341 1.688139
C 3.015886 0.766343 1.720672
C 1.789432 1.480218 1.647872
C 3.013307 7.894593 1.768878
C 1.793627 2.905661 1.701235
C 2.978576 5.041410 1.985641
C 1.780806 5.749793 1.726539
C 3.014555 3.609603 1.930074
C 1.784637 7.178297 1.686915
C 5.489783 0.748544 1.891893
C 4.248148 1.463233 1.860475
C 5.489718 7.886713 2.007223
C 4.238284 2.865625 2.053241
C 4.120509 5.813808 2.367044
C 5.489560 3.470585 2.425921
C 4.225078 7.198607 2.032624
C 7.963628 0.766460 1.721905
C 6.731402 1.463407 1.861005
C 7.966171 7.894767 1.770403
C 6.740957 2.865735 2.053620
C 8.001334 5.041280 1.986784
C 6.859422 5.813889 2.367087
C 7.964847 3.609455 1.931094
C 6.754399 7.198529 2.032940
Re 5.490449 5.062113 3.474165
