32
Title                                   
C 0.555212 0.768038 1.640112
C 9.188281 1.478437 1.702851
C 0.555141 7.891674 1.623559
C 9.180269 2.911683 1.795431
C 0.554953 5.035468 1.722200
C 9.194281 5.749351 1.751400
C 0.554904 3.617861 1.756125
C 9.187610 7.175613 1.678341
C 3.012240 0.765391 1.725444
C 1.791492 1.478526 1.702598
C 3.022421 7.896542 1.718523
C 1.799119 2.911698 1.794966
C 3.005365 5.054926 1.991331
C 1.785250 5.749308 1.750599
C 3.019510 3.609058 1.987007
C 1.792000 7.175606 1.677729
C 5.489872 0.739487 1.888328
C 4.254935 1.446864 1.872612
C 4.256864 2.859367 2.089778
C 4.157206 5.837988 2.244560
C 5.489579 3.446436 2.407905
C 4.245333 7.190575 1.940630
C 7.967421 0.765280 1.725810
C 6.724916 1.446896 1.873050
C 7.957112 7.896420 1.719174
C 6.722626 2.859448 2.090545
C 7.974391 5.054917 1.993100
C 6.822809 5.838093 2.247072
C 7.959983 3.609108 1.988316
C 6.734177 7.190346 1.941596
N 5.489777 7.887215 1.923612
Cu 5.488716 5.073570 3.349196
