31
Title                                   
C -0.036701 1.807211 5.866586
C 1.192991 2.530503 5.894812
C 1.176331 3.962683 5.976654
C -0.070487 4.669479 6.031162
C 0.069198 10.308890 5.994229
C 1.273682 12.466166 5.901197
C 0.012766 14.622414 5.842281
C 1.243117 15.342749 5.840999
C 1.223643 16.778159 5.840239
C 0.030996 13.185599 5.863872
C 2.434508 1.806126 5.862146
C 3.664887 2.524516 5.876361
C 3.640317 3.960670 5.940572
C 2.453536 0.369831 5.841838
C 3.706903 6.735280 6.146872
C 3.782161 8.199699 6.191650
C 2.400438 4.696130 5.994954
C 2.529315 10.312278 6.083561
C 3.746076 12.464694 5.887640
C 2.485879 14.621877 5.847601
C 3.715553 15.342689 5.838104
C 3.696376 16.780311 5.837162
C 2.505113 13.186185 5.876920
C 3.763663 11.025998 5.961291
C 1.292201 11.037706 5.992091
C -0.017640 0.370729 5.843056
C 2.554712 8.911501 6.354281
C 0.057373 8.878373 6.068419
C 2.456624 6.123256 6.095588
N -0.078858 6.028716 6.195906
Tc 1.237742 7.507728 6.913157
