31
Title                                   
C 0.552348 0.762296 1.733994
C 9.185915 1.477607 1.761609
C 0.557639 7.891986 1.734184
C 9.207078 2.906142 1.746750
C 0.553312 5.038468 1.698755
C 9.208110 5.767823 1.756317
C 0.556521 3.615962 1.698743
C 9.200104 7.191048 1.773332
C 3.020712 0.768228 1.876258
C 1.779172 1.463524 1.775188
C 3.027270 7.881995 1.864318
C 1.771306 2.886759 1.758914
C 2.985617 5.030229 1.883116
C 1.772110 5.748150 1.750080
C 2.979036 3.577484 1.899009
C 1.793379 7.176687 1.764465
C 5.487296 0.776498 2.053258
C 4.229963 1.511245 2.019721
C 5.492060 7.877713 2.053623
C 4.191853 5.728868 2.051708
C 4.246666 7.141863 1.998699
C 7.951916 0.772213 1.860644
C 6.732570 1.512414 1.994389
C 7.958634 7.886137 1.873142
C 6.787252 2.925430 2.044693
C 8.000375 5.076741 1.894129
C 7.993522 3.623994 1.876966
C 6.749316 7.143074 2.017091
N 4.167102 2.903791 2.080151
N 6.812715 5.750565 2.075987
Mn 5.490506 4.327111 2.450065
