31
Title                                   
C -0.017191 1.792006 5.821795
C 1.211155 2.517659 5.890376
C 1.201646 3.937659 6.054090
C -0.050808 4.642920 6.129170
C 0.024953 10.343193 6.047256
C 1.255070 12.481381 5.852670
C 0.006578 14.633087 5.738183
C 1.239342 15.351279 5.730087
C 1.230046 16.777071 5.737235
C 0.016057 13.205757 5.793073
C 2.451316 1.795838 5.811648
C 3.688795 2.501848 5.844947
C 3.673696 3.926262 5.959854
C 2.461879 0.367808 5.748558
C 3.711083 6.696720 6.240853
C 3.754871 8.208129 6.234041
C 2.443010 4.655674 6.057082
C 2.511744 10.344591 6.072812
C 3.727253 12.496496 5.833898
C 2.477982 14.632693 5.739811
C 3.711493 15.349009 5.722610
C 3.701816 16.780956 5.727888
C 2.488244 13.206790 5.798101
C 3.736833 11.072291 5.959095
C 1.264849 11.067401 5.992544
C -0.008091 0.364924 5.753177
C 2.543149 8.947040 6.272144
C 0.013567 8.937996 6.192712
C 2.485599 6.068508 6.143518
N -0.069147 5.995522 6.376241
Y 1.255626 7.459640 7.425729
