32
Title                                   
C 0.553596 0.783992 1.758749
C 9.183779 1.501299 1.782560
C 0.566182 7.899064 1.748191
C 9.163336 2.928980 1.814394
C 0.551517 5.043541 1.780595
C 9.199018 5.762899 1.774788
C 0.557363 3.619029 1.821479
C 9.200352 7.194071 1.755995
C 3.010148 0.747498 1.808220
C 1.796557 1.487492 1.797498
C 3.033985 7.881322 1.829918
C 1.793290 2.905908 1.858826
C 3.023192 5.035026 2.036167
C 1.794823 5.733367 1.828735
C 1.802156 7.164205 1.797806
C 5.486204 0.732340 1.919495
C 4.245902 1.436058 1.887454
C 4.261900 2.852979 1.960970
C 4.247414 7.156614 2.033618
C 7.961673 0.779605 1.795654
C 6.709092 1.456921 1.867537
C 7.968410 7.917791 1.788268
C 6.665739 2.874685 1.904693
C 7.945289 5.095622 1.862180
C 7.897176 3.647776 1.859510
C 6.755336 7.187501 1.909830
C 4.182141 5.787848 2.355809
N 5.436012 3.513932 2.040670
N 6.784057 5.845418 1.999355
N 5.504408 7.864656 1.982381
N 3.043508 3.602821 1.968863
Cr 5.610206 4.970930 3.383293
