32
Title                                   
C 0.555330 0.774998 1.761202
C 9.184644 1.484038 1.805042
C 0.555156 7.888157 1.743885
C 9.188632 2.904290 1.867601
C 0.554998 5.042914 1.792459
C 9.194882 5.738287 1.811680
C 0.555244 3.609810 1.843759
C 9.185518 7.170298 1.780969
C 3.015887 0.760593 1.775749
C 1.796085 1.483648 1.785765
C 3.028574 7.896921 1.783604
C 1.791932 2.903872 1.848063
C 3.020564 5.033629 1.936752
C 1.784852 5.738368 1.791449
C 1.794768 7.170163 1.761559
C 5.490442 0.762096 1.891866
C 4.253113 1.466237 1.860359
C 4.255299 2.884408 1.986601
C 4.254698 7.186860 1.930387
C 7.965225 0.760743 1.803635
C 6.727997 1.466524 1.880069
C 7.952135 7.896987 1.810563
C 6.725022 2.884871 2.005984
C 7.959979 5.034244 1.968652
C 6.725916 7.186998 1.952321
C 4.191072 5.789904 2.163495
C 5.488026 3.535721 2.235952
C 6.788244 5.790532 2.191750
N 5.490451 7.891563 1.925290
N 3.024240 3.607484 1.925778
N 7.956357 3.607923 1.958779
Co 5.478486 5.058107 3.132481
