31
Title                                   
C -0.028613 1.801585 5.926859
C 1.200779 2.529761 5.937067
C 1.187128 3.965927 5.977030
C -0.063408 4.674644 6.020067
C 0.062563 10.317343 5.921745
C 1.270337 12.450511 5.939501
C 0.017927 14.614238 5.923438
C 1.243874 15.337146 5.929271
C 1.227396 16.773670 5.926504
C 0.033047 13.172350 5.920540
C 2.441094 1.801575 5.919915
C 3.673656 2.517969 5.921889
C 3.652064 3.955169 5.949007
C 2.457574 0.364250 5.921316
C 3.707397 6.744993 6.065193
C 3.771975 8.238119 6.078310
C 2.417557 4.696372 5.967076
C 2.524819 10.310553 6.044575
C 3.742109 12.468525 5.922565
C 2.479887 14.613342 5.930813
C 3.715812 15.329917 5.924202
C 3.699471 16.770797 5.921618
C 2.497627 13.172931 5.936145
C 3.757697 11.042472 5.937881
C -0.012831 0.363514 5.923436
C 2.536689 8.919197 6.262109
C 0.054095 8.904024 5.902868
C 2.469204 6.125927 5.996056
N -0.076099 6.040170 6.149864
N 1.284621 11.041200 5.967791
Cr 1.196969 7.499958 6.636545
