32
Title                                   
C 0.557177 0.775967 1.701572
C 9.188898 1.472530 1.755093
C 0.544509 7.896974 1.686670
C 9.195616 2.900197 1.831441
C 0.557439 5.038815 1.756833
C 9.195765 5.745660 1.808207
C 0.565079 3.618025 1.788522
C 9.179870 7.168752 1.739765
C 3.016716 0.781387 1.758884
C 1.794242 1.497765 1.746962
C 3.008548 7.916528 1.745917
C 1.811919 2.929416 1.813284
C 3.011831 5.090356 1.937835
C 1.779259 5.764844 1.757097
C 3.049099 3.647916 1.958008
C 1.776292 7.189694 1.715409
C 5.482861 0.731959 1.921762
C 4.262036 1.462446 1.890165
C 4.278075 2.887186 2.065940
C 5.523804 3.484856 2.368791
C 4.208950 7.185295 1.924110
C 7.963672 0.745445 1.776246
C 6.726587 1.427667 1.913445
C 7.939558 7.876554 1.772141
C 6.742823 2.843554 2.105125
C 7.982974 5.036464 2.043905
C 6.804726 5.788962 2.293197
C 7.971826 3.596901 2.017117
C 6.716782 7.156938 1.978517
N 4.153196 5.855224 2.153678
N 5.462681 7.857178 1.951053
Mn 5.480950 5.039734 3.396808
