32
Title                                   
C 0.555317 0.776269 1.692261
C 9.182752 1.488619 1.754211
C 0.555181 7.889159 1.660232
C 9.183383 2.907914 1.839987
C 0.554941 5.037766 1.735267
C 9.191381 5.735487 1.753895
C 0.555292 3.616712 1.808059
C 9.184233 7.169524 1.705031
C 3.016647 0.761935 1.732996
C 1.797777 1.488582 1.738711
C 3.029019 7.896024 1.732337
C 1.797021 2.907496 1.824281
C 3.014401 5.043498 1.955026
C 1.788248 5.735259 1.734973
C 1.796061 7.169178 1.687774
C 5.490441 0.754593 1.886874
C 4.250384 1.463092 1.850511
C 4.261899 2.874899 2.029384
C 4.242460 7.181291 1.953844
C 7.964422 0.761915 1.754070
C 6.730626 1.463340 1.864243
C 7.951584 7.896142 1.754096
C 6.718395 2.875387 2.042752
C 7.966436 5.044368 1.982915
C 6.737734 7.181457 1.972510
C 4.176148 5.799632 2.259057
C 5.488354 3.517563 2.344111
C 6.803922 5.800636 2.284926
N 5.490178 7.880130 1.955863
N 3.030457 3.613292 1.958045
N 7.950344 3.613513 1.981349
V 5.478323 5.066518 3.483909
