32
Title                                   
C -0.008323 1.794773 5.822752
C 1.225366 2.514957 5.875370
C 1.217309 3.944158 6.011314
C -0.018088 6.040010 6.301790
C -0.029966 4.652024 6.061196
C 0.020131 10.293108 5.855992
C 1.269056 12.434395 5.862027
C 0.022566 14.609277 5.780613
C 1.251711 15.332178 5.779739
C 1.240990 16.767977 5.774773
C 0.035014 13.170888 5.808679
C 2.462207 1.791869 5.827913
C 3.694039 2.517035 5.855238
C 3.681610 3.938777 5.959310
C 2.474040 0.359078 5.782645
C 2.422386 6.075620 6.318563
C 3.823216 8.287036 6.417710
C 2.451042 4.667096 6.081877
C 2.555078 10.303322 6.091161
C 3.742729 12.467182 5.847005
C 2.488924 14.607125 5.798244
C 3.724710 15.328392 5.774994
C 3.713493 16.764650 5.769098
C 2.498316 13.172351 5.847338
C 3.759716 11.038980 5.909109
C 1.279188 10.984044 5.935610
C 0.001537 0.360480 5.777520
N 2.638390 9.013277 6.578480
N 4.882667 8.877820 5.637247
N 1.184650 6.671092 6.615873
N 3.680605 6.801397 6.338610
Ru 0.873022 8.466957 7.353507
