31
Title                                   
C 0.547111 0.755519 1.805149
C 9.185148 1.476496 1.728183
C 0.554400 7.885252 1.816920
C 9.200691 2.900727 1.735556
C 0.553827 5.038855 1.836627
C 9.200893 5.759317 1.775350
C 0.552005 3.614323 1.824002
C 9.188372 7.181767 1.761274
C 3.013416 0.766416 1.984151
C 1.773518 1.461576 1.904991
C 3.027397 7.875113 1.983537
C 1.770030 2.886056 1.918990
C 3.005571 5.026990 2.073958
C 1.782321 5.743604 1.930428
C 2.987037 3.576630 2.082724
C 1.789373 7.171880 1.912692
C 5.464562 0.790927 1.938946
C 4.221846 1.531354 2.068763
C 5.470196 7.909830 1.947319
C 4.242678 5.699416 2.177203
C 4.254156 7.132604 2.060121
C 7.947401 0.774593 1.709740
C 6.707820 1.502169 1.739886
C 7.950345 7.899421 1.730502
C 6.743644 2.904885 1.656858
C 7.963486 5.062567 1.712624
C 6.742924 5.780815 1.762057
C 7.967811 3.606339 1.664723
C 6.713885 7.190268 1.784208
N 4.179757 2.913546 2.217608
V 5.739753 4.322789 2.574208
