32
Title                                   
C 0.555245 0.799641 1.853706
C 9.175804 1.504077 1.851590
C 0.555405 7.907685 1.865395
C 9.166533 2.928564 1.850783
C 0.555430 5.051479 1.855180
C 9.196119 5.748679 1.874102
C 0.555235 3.622753 1.850245
C 9.192968 7.181779 1.877355
C 3.016639 0.760328 1.848503
C 1.804075 1.503624 1.845269
C 3.022208 7.895236 1.867227
C 1.813149 2.928227 1.844191
C 3.048458 5.084692 1.877886
C 1.784182 5.748490 1.867305
C 1.787333 7.181638 1.869821
C 5.490033 0.711925 1.867217
C 4.262670 1.443072 1.861917
C 4.315615 2.872246 1.872273
C 4.223744 7.130106 1.884923
C 7.963655 0.760868 1.859704
C 6.717309 1.443259 1.870257
C 7.958352 7.895723 1.878060
C 6.663871 2.872637 1.880389
C 7.932060 5.085004 1.895747
C 6.756821 7.130721 1.899732
N 4.198715 5.781956 1.914922
N 5.489598 3.530647 1.908631
N 6.782695 5.782928 1.944228
N 5.490359 7.819879 1.858892
N 3.077111 3.636681 1.838136
N 7.903005 3.637253 1.851690
Pd 5.479367 5.029396 3.728221
