31
Title                                   
C 0.546131 0.772529 1.669286
C 9.179602 1.478566 1.700967
C 0.557281 7.898305 1.659506
C 9.205982 2.909753 1.682062
C 0.561784 5.038433 1.603892
C 9.217472 5.772547 1.680515
C 0.562498 3.619908 1.612246
C 9.198829 7.194022 1.707458
C 3.019191 0.772685 1.865255
C 1.780372 1.472070 1.731389
C 3.026445 7.879738 1.836150
C 1.781140 2.899030 1.709103
C 2.986137 5.048593 1.869701
C 1.781493 5.754338 1.676113
C 2.983240 3.594056 1.917433
C 1.788940 7.184858 1.696798
C 5.479337 0.763025 2.118770
C 4.217951 1.509394 2.086073
C 5.485491 7.845064 2.108791
C 4.226212 7.120446 2.012945
C 7.935695 0.776250 1.836350
C 6.718594 1.507793 2.030589
C 7.952892 7.882432 1.846817
C 6.788706 2.954875 2.137856
C 8.025509 5.073365 1.897571
C 8.012808 3.633354 1.869586
C 6.760300 7.122243 2.064272
N 4.151286 2.906954 2.237098
N 6.853456 5.736002 2.205463
N 4.157490 5.734485 2.072325
Ru 5.499109 4.286930 2.676924
