32
Title                                   
C 0.544201 0.773874 1.685943
C 9.182453 1.506176 1.725444
C 0.574613 7.889301 1.686576
C 9.164411 2.937550 1.773843
C 0.548474 5.055025 1.662736
C 0.528683 3.626957 1.687993
C 9.224317 7.188870 1.734951
C 3.019381 0.727785 1.785499
C 1.789157 1.456276 1.705706
C 1.768450 2.887147 1.700597
C 2.973865 4.995352 1.877102
C 1.777104 5.753751 1.697465
C 2.986168 3.572802 1.843071
C 1.812086 7.178472 1.717593
C 5.493438 0.732290 1.933653
C 5.509299 7.847974 2.074015
C 4.212524 2.822867 2.001686
C 4.242648 7.128540 2.085462
C 7.954392 0.786155 1.776432
C 6.701904 1.485413 1.898243
C 7.986001 7.916227 1.807643
C 6.698148 2.930748 2.061410
C 8.027270 5.118226 2.086844
C 7.939568 3.674774 1.991289
C 6.806029 7.206605 2.113857
C 4.102090 5.740228 2.248737
C 5.399400 3.477952 2.269672
N 7.009978 5.894182 2.535416
N 3.031467 7.877343 1.820079
N 4.229089 1.404851 1.875179
N 9.214373 5.775334 1.740224
Ni 5.482780 5.042143 3.109140
