31
Title                                   
C 0.551693 0.774165 1.851177
C 9.179714 1.486497 1.788194
C 0.556660 7.896282 1.849960
C 9.192945 2.913052 1.813650
C 0.553135 5.038299 1.887864
C 9.208179 5.767114 1.823338
C 0.550308 3.617401 1.888795
C 9.196202 7.190520 1.803290
C 3.026773 0.769281 1.960859
C 1.779030 1.470092 1.932602
C 3.028259 7.872231 1.945426
C 1.778779 2.902032 1.957686
C 2.994071 5.039954 2.036574
C 1.775505 5.747826 1.943238
C 2.998704 3.596070 2.067319
C 1.783276 7.180210 1.915415
C 5.462360 0.764201 1.875938
C 4.242036 1.515970 2.008535
C 5.471563 7.847195 1.878211
C 4.240955 7.104120 1.972338
C 7.943461 0.774388 1.739388
C 6.702773 1.487720 1.729687
C 7.955498 7.890987 1.758172
C 6.732344 2.904050 1.667110
C 7.980743 5.083888 1.753180
C 7.953722 3.624192 1.726114
C 6.735565 7.156940 1.776537
N 4.214593 2.924376 2.182226
N 6.790287 5.778022 1.749547
N 4.197298 5.708570 2.077722
V 5.664946 4.316398 2.459210
