32
Title                                   
C 0.555899 0.777785 1.716485
C 9.188633 1.477291 1.750533
C 0.547545 7.899986 1.716716
C 9.182388 2.902276 1.810258
C 0.553305 5.036652 1.756706
C 9.194306 5.749129 1.819405
C 0.562461 3.617373 1.780516
C 9.188632 7.173948 1.782273
C 3.014913 0.776825 1.753800
C 1.793174 1.495338 1.738412
C 3.001370 7.906398 1.772595
C 1.813585 2.925335 1.782858
C 3.017798 5.083950 1.887280
C 1.777898 5.763719 1.762178
C 3.063507 3.640148 1.865548
C 1.773292 7.189794 1.737082
C 5.482751 0.727326 1.876794
C 4.259606 1.462862 1.819999
C 5.472819 7.865505 1.978352
C 4.297595 2.878025 1.902879
C 4.208010 7.180322 1.934916
C 7.963527 0.753287 1.788710
C 6.724951 1.440655 1.856092
C 7.959469 7.881678 1.837648
C 6.711262 2.850770 1.951631
C 7.973128 5.035923 2.037475
C 6.841429 5.807039 2.373116
C 7.949097 3.598348 1.952262
C 6.734451 7.173388 2.055336
N 4.157830 5.826903 2.062819
N 5.512137 3.497643 2.056387
Rh 5.456994 5.015569 3.396441
