32
Title                                   
C 0.551859 0.781225 1.784435
C 9.189730 1.494188 1.792001
C 0.564544 7.895043 1.786547
C 9.178497 2.924099 1.826143
C 0.558789 5.057655 1.796402
C 0.553033 3.627505 1.810731
C 9.207794 7.179717 1.811923
C 3.022541 0.759376 1.811462
C 1.800777 1.487156 1.800615
C 1.804104 2.918177 1.819098
C 3.018993 5.060036 1.919127
C 1.780715 5.768819 1.812656
C 3.063296 3.619075 1.884057
C 1.795254 7.197007 1.802597
C 5.489999 0.725365 1.863237
C 5.478964 7.842792 1.917590
C 4.283180 2.852154 1.921750
C 4.214876 7.152713 1.926581
C 7.959944 0.759425 1.791308
C 6.710372 1.450378 1.833009
C 7.974891 7.887193 1.823703
C 6.696555 2.882602 1.929100
C 7.972518 5.088342 1.943143
C 7.925497 3.642085 1.906681
C 6.751953 7.161637 1.947042
N 4.151818 5.825779 2.084582
N 5.467426 3.475233 2.087260
N 6.842621 5.800898 2.133574
N 3.014902 7.909343 1.819368
N 4.247265 1.424186 1.846321
N 9.205269 5.755962 1.820948
Tc 5.455789 5.006025 3.660508
