32
Title                                   
C 0.549209 0.804352 1.843585
C 9.168387 1.506853 1.845644
C 0.546402 7.912890 1.850832
C 9.162784 2.931678 1.856705
C 0.549067 5.056948 1.847801
C 9.186643 5.752926 1.890569
C 0.550516 3.629863 1.845094
C 9.184047 7.186165 1.884938
C 3.011846 0.768659 1.829626
C 1.797712 1.510866 1.835968
C 3.015438 7.902813 1.814860
C 1.809384 2.936264 1.832894
C 3.046305 5.097333 1.768165
C 1.777795 5.756879 1.820882
C 1.780059 7.188537 1.823251
C 5.482214 0.716945 1.877752
C 4.257267 1.455970 1.867400
C 4.301576 2.883108 1.932463
C 4.215384 7.130033 1.772429
C 7.954912 0.763807 1.848547
C 6.710098 1.451023 1.886435
C 7.945635 7.896320 1.882348
C 6.670645 2.875458 1.961077
C 7.931029 5.081045 1.960943
C 6.742114 7.135988 1.942078
N 4.191467 5.789729 1.691119
N 5.484100 3.537121 2.094430
N 6.773915 5.784956 2.077849
N 5.480448 7.823570 1.848095
N 3.071650 3.646702 1.820636
N 7.901226 3.639445 1.883437
Pt 5.684489 4.856941 3.775647
