32
Title                                   
C 0.562036 0.785524 1.758061
C 9.191662 1.500217 1.794493
C 0.578709 7.904216 1.719054
C 9.171947 2.935726 1.816892
C 0.557079 5.048286 1.773948
C 9.204881 5.768495 1.697299
C 0.560144 3.625445 1.822791
C 9.211546 7.198538 1.681290
C 3.030120 0.746805 1.789798
C 1.808125 1.487913 1.808812
C 3.053083 7.875735 1.806375
C 1.794751 2.906760 1.898084
C 3.014870 5.029143 2.085640
C 1.800536 5.742590 1.831786
C 1.813559 7.166734 1.780731
C 5.499738 0.732313 1.884261
C 4.262383 1.447240 1.888480
C 4.246056 2.865307 2.120715
C 4.275917 7.146753 2.001765
C 7.968001 0.780729 1.778302
C 6.715957 1.468713 1.878461
C 7.977429 7.918184 1.709994
C 6.696101 2.897682 2.049719
C 7.938230 5.102082 1.696850
C 7.922872 3.657824 1.860648
C 6.769342 7.150486 1.694949
C 4.174392 5.782193 2.401430
C 5.454443 3.490804 2.439813
N 6.774812 5.826223 1.596452
N 5.516993 7.847425 1.870385
N 3.012519 3.604062 2.069968
Pt 5.375528 4.971043 3.706254
