31
Title                                   
C 0.004836 1.832651 5.958823
C 1.240331 2.569744 5.971981
C 1.243287 4.024541 6.000096
C -0.001613 4.734822 6.014847
C -0.004980 10.249138 6.022177
C 1.224558 12.421111 5.982783
C 0.001309 14.600723 5.949902
C 1.232015 15.329765 5.942801
C 1.234689 16.781313 5.938557
C -0.000262 13.145664 5.970651
C 2.471034 1.829150 5.958116
C 3.708732 2.557298 5.970324
C 3.709753 4.000497 5.998359
C 2.469414 0.380382 5.941912
C 3.738763 6.767990 6.046805
C 3.732186 8.210646 6.049267
C 2.483540 4.754772 6.013491
C 2.457128 10.256201 6.019459
C 3.705667 12.425086 5.982296
C 2.461845 14.595222 5.949989
C 3.704299 15.325273 5.942944
C 3.706754 16.776516 5.938626
C 2.458732 13.141075 5.970646
C 3.697293 10.994569 6.007553
C 0.001207 0.381071 5.942330
C 2.493990 8.851589 6.038672
N 0.000847 8.884353 6.045014
N 2.531743 6.137943 6.038411
N -0.030754 6.109263 6.041453
N 1.217599 10.980076 6.007793
Ni 1.248474 7.509704 6.045124
