32
Title                                   
C 0.548571 0.775580 1.708171
C 9.186694 1.502022 1.720958
C 0.570277 7.889921 1.722768
C 9.164555 2.930471 1.778409
C 0.555861 5.057407 1.772172
C 0.541780 3.628394 1.776365
C 9.216139 7.181310 1.751369
C 3.015815 0.747645 1.781564
C 1.793561 1.472616 1.744477
C 1.786457 2.904021 1.796058
C 3.000974 5.021486 2.044511
C 1.788782 5.759910 1.834716
C 3.030416 3.591274 1.959765
C 1.809257 7.188423 1.791243
C 5.495099 0.733518 1.845550
C 5.492459 7.869991 1.969938
C 4.251820 2.823880 2.007199
C 4.230429 7.179030 2.090362
C 7.961905 0.769283 1.723336
C 6.709442 1.461495 1.795093
C 7.982828 7.901809 1.762538
C 6.691136 2.881089 1.955928
C 7.983019 5.100800 1.982656
C 7.911221 3.655423 1.914815
C 6.766086 7.202409 1.966949
C 4.139678 5.811243 2.377776
N 5.438854 3.425365 2.228330
N 6.881310 5.861046 2.261722
N 3.021128 7.899738 1.836099
N 4.236807 1.415759 1.843473
N 9.208361 5.762041 1.788441
Fe 5.523044 5.006789 3.180749
