32
Title                                   
C 0.549757 0.780749 1.745434
C 9.175785 1.477018 1.787783
C 0.537464 7.903210 1.736196
C 9.174449 2.909534 1.868615
C 0.551676 5.042631 1.776763
C 9.183371 5.748830 1.870817
C 0.559738 3.623259 1.798973
C 9.174885 7.174331 1.806531
C 3.007999 0.778877 1.770364
C 1.791057 1.500185 1.761075
C 3.002376 7.911164 1.736265
C 1.820117 2.938063 1.766560
C 3.051409 5.106335 1.683401
C 1.784419 5.765944 1.706296
C 3.077463 3.652974 1.770260
C 1.772067 7.191721 1.707198
C 5.473624 0.715634 1.887491
C 4.262099 1.453772 1.840270
C 4.306850 2.885803 1.906846
C 4.207555 7.156375 1.741334
C 7.954439 0.747888 1.802108
C 6.709331 1.430209 1.899114
C 7.933439 7.871839 1.822794
C 6.695372 2.848774 2.042853
C 7.961439 5.049231 2.129468
C 6.808567 5.823932 2.484457
C 7.940617 3.604118 2.047696
C 6.702901 7.158215 2.033750
N 4.220100 5.832517 1.641044
N 5.503521 3.509654 2.142067
N 5.459397 7.855735 1.902871
Pt 5.580481 4.962667 3.696808
