31
Title                                   
C 0.554867 0.766512 1.738997
C 9.192444 1.472609 1.765566
C 0.554680 7.887571 1.739093
C 9.202249 2.903911 1.746244
C 0.555126 5.035132 1.690977
C 9.202226 5.750451 1.746590
C 0.555258 3.619117 1.691151
C 9.192311 7.181692 1.766056
C 3.026733 0.772322 1.859309
C 1.786525 1.472673 1.770898
C 3.026576 7.882196 1.859239
C 1.777194 2.903803 1.752513
C 2.989786 5.052643 1.891885
C 1.777266 5.750409 1.752550
C 2.989971 3.601356 1.891684
C 1.786551 7.181709 1.770907
C 5.489700 0.794576 2.029520
C 4.237472 1.517120 1.995172
C 5.489357 7.859656 2.030030
C 4.237378 7.137188 1.995080
C 7.952146 0.772219 1.851953
C 6.741591 1.517328 1.988381
C 7.951939 7.882076 1.852514
C 7.989571 5.052891 1.881493
C 7.989563 3.601676 1.880994
C 6.741489 7.137024 1.989284
N 4.175183 2.909055 2.088440
N 4.175035 5.745259 2.088259
N 6.804761 2.909272 2.078597
N 6.804869 5.745270 2.079295
V 5.491565 4.327325 2.556628
