32
Title                                   
C 0.001668 1.797585 5.665698
C 1.235511 2.515044 5.751052
C 1.235416 3.929857 5.983769
C 0.010306 6.001226 6.508788
C -0.007955 4.628157 6.110160
C -0.020540 10.354520 6.104975
C 1.235627 12.471883 5.779235
C 0.002452 14.632026 5.594443
C 1.235590 15.353469 5.566793
C 1.235623 16.780678 5.553934
C 0.003300 13.206659 5.694808
C 2.469310 1.797568 5.665748
C 3.707553 2.509734 5.735618
C 3.707497 3.920365 5.942877
C 2.471025 0.370222 5.570353
C 2.460480 6.001273 6.508733
C 3.707504 8.152788 6.460994
C 2.478847 4.628133 6.110141
C 2.491617 10.354647 6.105383
C 3.707734 12.507814 5.758808
C 2.468776 14.632040 5.594507
C 3.707640 15.347815 5.563680
C 3.707601 16.781021 5.550678
C 2.468043 13.206706 5.694834
C 3.707624 11.097610 5.954478
C 1.235574 11.058663 5.982558
C 0.000046 0.370199 5.570279
C 2.592425 8.982381 6.405598
C 4.822801 8.982222 6.404869
C 1.235411 6.600713 6.859697
N 3.707488 6.716209 6.581561
Ag 1.235342 8.358095 8.116253
