32
Title                                   
C 0.554879 0.765934 1.711874
C 9.189537 1.472978 1.730072
C 0.555727 7.891993 1.732411
C 9.191333 2.901369 1.752589
C 0.555178 5.035822 1.725151
C 9.206772 5.755507 1.780152
C 0.554061 3.611242 1.733001
C 9.194256 7.182204 1.777955
C 3.024884 0.767525 1.793093
C 1.789372 1.470798 1.730928
C 3.021931 7.885255 1.835191
C 1.785666 2.899279 1.751249
C 2.988031 5.034464 1.935085
C 1.773705 5.753933 1.777711
C 3.000660 3.607978 1.848719
C 1.787020 7.180409 1.777214
C 5.489721 0.760793 1.890775
C 4.258826 1.480250 1.851334
C 5.490954 7.879528 1.986378
C 4.251760 2.924170 1.880415
C 4.137379 5.764654 2.213207
C 5.485236 3.602918 1.939578
C 4.253120 7.163106 2.004446
C 7.954622 0.771057 1.792001
C 6.719116 1.483245 1.851637
C 7.960048 7.889432 1.835575
C 6.723765 2.928278 1.882594
C 7.992658 5.038214 1.944132
C 6.848944 5.773893 2.232207
C 7.975837 3.611474 1.854246
C 6.731556 7.168046 2.010345
Ag 5.487211 4.955442 3.752235
