32
Title                                   
C 0.555071 0.765203 1.708560
C 9.187618 1.475508 1.747208
C 0.555007 7.892251 1.706931
C 9.183499 2.910792 1.804028
C 0.554962 5.036484 1.760451
C 9.192194 5.751544 1.797006
C 0.555061 3.618049 1.776537
C 9.186979 7.176912 1.749761
C 3.012717 0.763784 1.772568
C 1.791965 1.475392 1.747247
C 3.025082 7.892587 1.778001
C 1.796078 2.910592 1.803619
C 3.011925 5.051313 1.974513
C 1.787401 5.751428 1.795217
C 3.016793 3.611302 1.945392
C 1.792566 7.176908 1.748556
C 5.490000 0.747526 1.890227
C 4.257475 1.452524 1.877011
C 4.255079 2.873853 2.014861
C 4.199187 5.810597 2.195825
C 5.489717 3.511992 2.227187
C 4.257071 7.188271 1.940724
C 7.967029 0.763764 1.772818
C 6.722494 1.452648 1.877167
C 7.954442 7.892391 1.779173
C 6.724658 2.874025 2.015452
C 7.967787 5.051389 1.977306
C 6.780310 5.810467 2.198536
C 7.962906 3.611444 1.946716
C 6.722424 7.188034 1.942255
N 5.489856 7.890823 1.914776
Co 5.488411 5.031393 3.127872
