25
Title                                   
C 7.786372 1.774996 1.908273
C 7.739727 4.304300 1.905784
C 7.787522 6.830236 1.908644
C 1.697974 0.712237 1.908819
C 0.637222 1.772501 1.908201
C 1.700451 7.861348 1.909046
C 1.337728 5.538689 1.907128
C 0.634971 4.302460 1.906142
C 1.353135 3.060669 1.906647
C 0.646221 6.814779 1.908824
C 4.227207 0.710063 1.906983
C 2.985694 1.428439 1.907239
C 4.229200 7.814758 1.906850
C 2.983903 7.120533 1.907401
C 6.739675 0.720989 1.908585
C 5.463430 1.412727 1.906744
C 6.755485 7.862300 1.908690
C 7.061591 5.563576 1.905732
C 7.045598 3.058736 1.906393
C 5.488493 7.136507 1.905911
C 2.774081 2.849268 1.906054
C 2.766214 5.712380 1.906589
C 5.637168 2.841178 1.905627
N 5.687002 5.762086 1.903118
Cu 4.204475 4.280257 1.904675
