32
Title                                   
C 0.555650 0.788898 1.675006
C 9.188349 1.491865 1.704926
C 0.568318 7.907748 1.667217
C 9.175337 2.927930 1.774376
C 0.564589 5.053255 1.706927
C 9.205348 5.763162 1.753297
C 0.561042 3.621710 1.744285
C 9.208067 7.187693 1.711228
C 3.022494 0.755453 1.768451
C 1.807899 1.486783 1.729212
C 1.813343 2.916743 1.784920
C 3.005766 5.061886 1.987563
C 1.793831 5.772692 1.750192
C 3.059852 3.623275 1.962224
C 1.788154 7.194370 1.717455
C 5.488509 0.711107 1.892722
C 5.473698 7.850154 2.010115
C 4.268797 2.829499 2.057076
C 4.200376 7.173429 2.049268
C 7.956043 0.762309 1.714154
C 6.707015 1.444492 1.821206
C 7.969534 7.895146 1.751651
C 6.707180 2.848627 2.007062
C 7.980997 5.078914 1.975756
C 7.918869 3.629109 1.940505
C 6.764097 7.175655 1.989664
N 4.086344 5.861178 2.367180
N 5.472802 3.394910 2.366269
N 6.868913 5.839197 2.299275
N 3.019486 7.910031 1.776197
N 4.238563 1.422706 1.873880
Tc 5.494501 5.031266 3.384238
