25
Title                                   
C 7.766639 1.756429 1.909375
C 7.754421 4.289991 1.906337
C 7.766835 6.823312 1.909662
C 1.681353 0.737786 1.909975
C 0.662794 1.756252 1.909593
C 1.681549 7.841618 1.910010
C 1.355760 5.552046 1.906847
C 0.675456 4.289775 1.906706
C 1.355600 3.027329 1.906644
C 0.663059 6.823089 1.909652
C 4.214607 0.750362 1.907179
C 2.952411 1.430719 1.907163
C 4.214586 7.829470 1.907358
C 2.952590 7.148817 1.907297
C 6.748018 0.738026 1.909594
C 5.476840 1.430956 1.906567
C 6.748154 7.841827 1.909726
C 7.074075 5.552303 1.906461
C 7.074022 3.027638 1.906057
C 5.476899 7.149029 1.906794
N 2.739011 2.813756 1.903265
N 2.739133 5.765657 1.903456
N 5.690791 2.813976 1.902633
N 5.690820 5.765903 1.902974
Au 4.215117 4.289945 1.902777
