25
Title                                   
C 7.794287 1.755776 1.908951
C 7.771968 4.289995 1.906170
C 7.794422 6.823851 1.909265
C 1.680873 0.710285 1.909523
C 0.635318 1.755649 1.909256
C 1.680838 7.869152 1.909686
C 1.344073 5.548272 1.907016
C 0.657706 4.289907 1.906578
C 1.343882 3.031316 1.906805
C 0.635444 6.823752 1.909448
C 4.214670 0.732675 1.907142
C 2.956291 1.418957 1.907223
C 4.214681 7.846976 1.907291
C 2.956346 7.160768 1.907348
C 6.748853 0.710446 1.909198
C 5.473113 1.419088 1.906623
C 6.749006 7.869299 1.909254
C 7.085635 5.548416 1.906334
C 7.085654 3.031435 1.906035
C 5.473198 7.160645 1.906694
C 2.762466 2.837450 1.904998
C 2.762605 5.742294 1.905263
C 5.667135 2.837494 1.904007
C 5.667173 5.742310 1.904239
Cr 4.214904 4.289807 1.899754
