32
Title                                   
C 0.553364 0.772734 1.608089
C 9.191558 1.473803 1.612707
C 0.563239 7.888850 1.617325
C 9.190547 2.909113 1.661901
C 0.561631 5.056763 1.665992
C 0.560800 3.629437 1.674150
C 9.201270 7.163203 1.649083
C 3.015778 0.762765 1.770100
C 1.800199 1.483889 1.690481
C 1.805089 2.922212 1.766159
C 2.963846 5.059601 2.148454
C 1.784169 5.773268 1.779614
C 3.015473 3.619844 2.041110
C 1.795733 7.199459 1.712647
C 5.480536 0.731763 1.901518
C 5.465038 7.878344 2.109584
C 4.260543 2.861086 2.106168
C 4.178870 7.193579 2.243311
C 7.959519 0.743253 1.668551
C 6.717879 1.448865 1.780756
C 7.956452 7.870798 1.730647
C 6.739524 2.872154 1.932309
C 8.014140 5.061203 1.957815
C 7.976960 3.612162 1.836419
C 6.741037 7.176358 2.061287
C 4.017238 5.872666 2.653233
C 5.507388 3.453367 2.278233
C 6.920243 5.803319 2.368550
N 3.013344 7.915120 1.804318
N 4.235671 1.436996 1.888575
N 9.217563 5.752645 1.669461
Cu 5.529123 5.012572 3.324951
