25
Title                                   
C 7.796512 1.753121 2.053000
C 7.773718 4.289770 1.946912
C 7.797051 6.827023 2.052260
C 1.677836 0.707648 2.056646
C 0.632491 1.752823 2.054552
C 1.678216 7.871625 2.057175
C 1.339775 5.551556 1.944648
C 0.656861 4.289604 1.948739
C 1.339209 3.027864 1.943887
C 0.633071 6.826549 2.055588
C 4.214319 0.731068 1.949075
C 2.952754 1.414295 1.945715
C 4.214463 7.848364 1.948381
C 2.953232 7.165150 1.945363
C 6.751195 0.708179 2.052741
C 5.476050 1.414608 1.942465
C 6.751484 7.872232 2.052411
C 7.091103 5.551868 1.940056
C 7.090376 3.028191 1.942025
C 5.476714 7.165288 1.940735
C 2.738967 2.813519 1.792897
C 2.739614 5.765761 1.793669
C 5.690226 2.814169 1.791165
C 5.691332 5.765989 1.787582
Y 4.213971 4.289750 0.736413
