25
Title                                   
C 7.781942 1.754196 1.908826
C 7.711915 4.290023 1.905786
C 7.782044 6.825485 1.909025
C 1.715504 0.721186 1.909041
C 0.648941 1.771512 1.908721
C 1.715556 7.858275 1.909370
C 1.338686 5.526640 1.907363
C 0.612871 4.289918 1.906571
C 1.338549 3.053019 1.907020
C 0.648990 6.807945 1.909215
C 4.236263 0.749266 1.906718
C 2.996605 1.453543 1.907131
C 4.236231 7.830390 1.906912
C 2.996585 7.126113 1.907582
C 6.749739 0.731543 1.909058
C 5.497445 1.434593 1.906149
C 6.749813 7.848178 1.909032
C 7.031789 5.549249 1.905943
C 7.031792 3.030635 1.905833
C 5.497413 7.145064 1.906236
C 2.780261 2.904481 1.905975
C 2.780459 5.675262 1.906253
N 5.668906 2.831436 1.903322
N 5.668879 5.748230 1.903501
Ni 4.153360 4.289828 1.903517
