32
Title                                   
C 0.554148 0.776302 1.732148
C 9.193329 1.474992 1.759916
C 0.561001 7.899539 1.743618
C 9.196565 2.904629 1.806972
C 0.564634 5.043564 1.764073
C 9.205289 5.749501 1.825464
C 0.567652 3.615950 1.769588
C 9.198499 7.174095 1.787128
C 3.016763 0.755808 1.800932
C 1.794592 1.480284 1.757461
C 1.808125 2.913316 1.789289
C 3.004117 5.064946 1.963859
C 1.788880 5.770347 1.797435
C 3.037881 3.637615 1.928284
C 1.783428 7.191768 1.786276
C 5.485763 0.739136 1.898398
C 4.250795 1.453869 1.883985
C 5.465159 7.865692 1.959536
C 4.256398 2.874475 2.019773
C 5.497096 3.502511 2.284092
C 4.205584 7.185627 1.997852
C 7.963095 0.752838 1.792571
C 6.726872 1.448457 1.889527
C 7.960303 7.884259 1.820662
C 6.738085 2.863644 2.047806
C 7.989878 5.034552 2.017397
C 6.814920 5.787069 2.263579
C 7.972021 3.601605 1.971266
C 6.730358 7.170148 1.995975
N 4.128638 5.838291 2.240937
N 3.006920 7.905066 1.829392
Fe 5.466976 5.051297 3.148307
