32
Title                                   
C 0.551329 0.774360 1.656854
C 9.184731 1.493360 1.689179
C 0.573728 7.895607 1.668138
C 9.173138 2.923958 1.727868
C 0.560140 5.043749 1.670248
C 9.205104 5.759425 1.759067
C 0.549926 3.614313 1.683301
C 9.213096 7.188540 1.742228
C 3.018492 0.747282 1.739729
C 1.795101 1.468697 1.690499
C 1.784291 2.891460 1.723225
C 2.997766 5.018260 1.954534
C 1.796314 5.750202 1.717267
C 3.015051 3.585082 1.929364
C 1.803524 7.179390 1.695716
C 5.484560 0.744329 1.879289
C 5.487289 7.870177 1.986775
C 4.223263 2.821446 2.084766
C 4.223546 7.177500 2.014627
C 7.953208 0.773846 1.735034
C 6.708963 1.475103 1.843045
C 7.977118 7.908676 1.801262
C 6.714096 2.883290 2.038434
C 7.997181 5.074787 1.995942
C 7.929833 3.639531 1.926581
C 6.768485 7.204783 2.036258
C 4.130660 5.803531 2.306478
C 5.446717 3.445216 2.423869
N 6.890926 5.852683 2.398016
N 3.035226 7.897251 1.755913
N 4.229744 1.427129 1.864707
Ta 5.511217 5.078226 3.575286
