32
Title                                   
C 0.560499 0.775869 1.679651
C 9.193294 1.456371 1.701289
C 0.537105 7.900678 1.668251
C 9.213898 2.883397 1.711564
C 0.557367 5.036460 1.672202
C 9.201529 5.740287 1.691776
C 0.576651 3.616670 1.707736
C 9.175581 7.164589 1.697765
C 3.020284 0.802877 1.806187
C 1.796350 1.505830 1.743334
C 2.984559 7.928318 1.825057
C 1.819032 2.937488 1.801481
C 2.975299 5.113074 2.037102
C 1.763851 5.777479 1.756296
C 3.041720 3.666353 1.994141
C 1.759734 7.203687 1.736749
C 5.480298 0.736091 1.952221
C 4.265659 1.495213 1.927021
C 5.448524 7.855169 2.042347
C 4.288437 2.938737 2.051080
C 5.581952 3.511145 2.222151
C 4.162455 7.196981 2.083120
C 7.959859 0.728863 1.769636
C 6.734763 1.428504 1.874292
C 7.937641 7.850829 1.792786
C 6.772026 2.849323 1.950164
C 7.993077 5.004410 1.848305
C 6.831455 5.712710 2.115999
C 7.999868 3.573984 1.817773
C 6.694322 7.123894 1.990337
N 4.058356 5.870078 2.370988
Cu 5.548318 5.025833 3.274697
