32
Title                                   
C 0.556329 0.774104 1.677619
C 9.191230 1.485973 1.749935
C 0.560409 7.890645 1.650165
C 9.185091 2.909043 1.845654
C 0.552216 5.040244 1.749022
C 9.201159 5.751299 1.774874
C 0.561375 3.615802 1.808082
C 9.189799 7.182404 1.697131
C 3.013089 0.751979 1.702633
C 1.796776 1.487225 1.715731
C 3.030228 7.887260 1.712409
C 1.794248 2.906024 1.812896
C 3.016591 5.039652 1.950678
C 1.794677 5.736029 1.732985
C 1.797019 7.163146 1.680690
C 5.479639 0.749061 1.875578
C 4.241452 1.451341 1.820340
C 4.240330 2.864290 2.008421
C 4.239214 7.169222 1.943270
C 7.963425 0.771222 1.750321
C 6.719230 1.455878 1.876289
C 7.958412 7.909987 1.728895
C 6.702977 2.865441 2.071988
C 7.969637 5.059065 2.002285
C 7.944822 3.618497 2.011910
C 6.732849 7.204226 1.939288
C 4.188758 5.787047 2.260852
C 5.445465 3.498615 2.328273
C 6.798638 5.839921 2.238261
N 5.485117 7.884454 1.948041
N 3.020318 3.608119 1.954495
Hf 5.563242 5.053974 3.694488
