31
Title                                   
C 0.002277 1.812537 5.937004
C 1.231765 2.547108 5.942476
C 1.229091 3.997317 5.980772
C -0.011346 4.719700 6.047266
C -0.000289 10.278047 6.035165
C 1.227772 12.447082 5.941906
C 0.001223 14.614749 5.939088
C 1.232968 15.338228 5.935319
C 1.234103 16.780040 5.932307
C 0.000328 13.171325 5.943060
C 2.467293 1.817947 5.920458
C 3.710557 2.532130 5.923534
C 3.713990 3.966762 5.940552
C 2.467888 0.375129 5.923914
C 3.694804 6.741159 6.040195
C 3.681880 8.197083 6.047399
C 2.481030 4.688896 5.929907
C 2.456759 10.316115 5.906252
C 3.706528 12.455843 5.925394
C 2.462681 14.610793 5.928737
C 3.703738 15.333375 5.931779
C 3.704816 16.776818 5.928770
C 2.461983 13.165734 5.923806
C 3.707064 11.032746 5.929242
C -0.000364 0.371018 5.933547
C 2.457707 8.918351 5.900634
C 0.001693 8.871142 6.244718
N 2.519114 6.057819 5.883876
N -0.054536 6.097522 6.244965
N 1.223277 11.030813 5.961471
V 1.426622 7.494819 6.697684
