32
Title                                   
C 0.556703 0.767688 1.702360
C 9.194575 1.479555 1.737311
C 0.566975 7.890056 1.701287
C 9.192570 2.908789 1.784630
C 0.562919 5.045567 1.729884
C 9.202768 5.749642 1.799114
C 0.560066 3.612643 1.742971
C 9.203061 7.176371 1.767797
C 3.021447 0.757714 1.758610
C 1.798977 1.472326 1.730460
C 1.794926 2.896709 1.762912
C 3.015589 5.029537 1.917902
C 1.795711 5.757535 1.739949
C 3.025111 3.598220 1.911529
C 1.799009 7.183151 1.714656
C 5.488418 0.757962 1.870771
C 5.476371 7.898198 1.983512
C 4.248813 2.850149 2.029278
C 4.229047 7.191030 1.987953
C 7.960149 0.762183 1.773301
C 6.715836 1.468341 1.851295
C 7.965965 7.897877 1.825732
C 6.731662 2.882994 2.023194
C 7.983881 5.048807 2.020128
C 7.959358 3.612868 1.959394
C 6.739405 7.197249 2.041549
C 4.164219 5.812199 2.176537
C 5.472010 3.484299 2.286446
C 6.819669 5.805338 2.318267
N 3.023781 7.911877 1.756021
N 4.234267 1.442757 1.840404
Ti 5.430505 5.061558 3.468346
