32
Title                                   
C 0.555178 0.766675 1.643731
C 9.186266 1.475698 1.701732
C 0.555092 7.892548 1.631635
C 9.180879 2.911237 1.790883
C 0.554938 5.035257 1.722314
C 9.193206 5.751156 1.757234
C 0.554881 3.617594 1.754361
C 9.187028 7.176110 1.684739
C 3.014191 0.763623 1.723107
C 1.793399 1.475834 1.701138
C 3.025683 7.891331 1.721299
C 1.798489 2.911350 1.790586
C 3.004112 5.055638 2.000200
C 1.786256 5.751108 1.757254
C 3.015626 3.610851 1.979287
C 1.792486 7.176021 1.684364
C 5.489881 0.743676 1.882452
C 4.257921 1.450293 1.864365
C 4.255392 2.866171 2.060266
C 4.167495 5.830436 2.273161
C 5.489579 3.478074 2.340443
C 4.250296 7.187851 1.944308
C 7.965514 0.763521 1.723919
C 6.721956 1.450286 1.865064
C 7.953885 7.891269 1.721933
C 6.724164 2.866180 2.060771
C 7.975465 5.055577 2.000312
C 6.812211 5.830309 2.273361
C 7.963822 3.610791 1.979690
C 6.729237 7.187746 1.944544
N 5.489793 7.887033 1.924968
Rh 5.489438 5.049946 3.410079
