32
Title                                   
C 0.555680 0.770348 1.668245
C 9.191742 1.480977 1.691919
C 0.565941 7.893402 1.679214
C 9.189836 2.910372 1.745704
C 0.564102 5.048118 1.719834
C 9.201253 5.751597 1.770815
C 0.561847 3.615110 1.722303
C 9.199496 7.178451 1.732107
C 3.019718 0.755795 1.756861
C 1.799370 1.475510 1.707910
C 1.798044 2.901749 1.754289
C 3.012732 5.035050 1.998705
C 1.801355 5.758860 1.768913
C 3.026557 3.602159 1.948952
C 1.799049 7.187284 1.730576
C 5.482501 0.753195 1.863492
C 5.470775 7.896609 1.991847
C 4.248504 2.847725 2.062855
C 4.219671 7.191930 2.055798
C 7.955538 0.761277 1.724827
C 6.713460 1.467565 1.817323
C 7.959731 7.896449 1.780487
C 6.727740 2.876215 2.008495
C 7.977580 5.049916 1.987781
C 7.956015 3.612584 1.926610
C 6.733706 7.195202 2.013457
C 4.151004 5.820302 2.336274
C 5.480665 3.476186 2.345609
C 6.811577 5.803433 2.300219
N 3.022861 7.912934 1.788357
N 4.235423 1.445509 1.856369
V 5.500291 5.039378 3.457353
