31
Title                                   
C 0.554957 0.760719 1.815882
C 9.187522 1.471252 1.829937
C 0.554827 7.893954 1.816398
C 9.196054 2.895315 1.827342
C 0.554932 5.039369 1.816133
C 9.195973 5.758830 1.828177
C 0.554928 3.614807 1.815619
C 9.187349 7.183154 1.830575
C 3.030977 0.770976 1.873294
C 1.791710 1.471205 1.834080
C 3.030862 7.883552 1.873260
C 1.783149 2.895293 1.831586
C 3.009676 5.048584 1.878641
C 1.783119 5.759099 1.832103
C 3.009611 3.605547 1.878668
C 1.791559 7.183317 1.834648
C 5.489240 0.760717 1.932196
C 4.263193 1.513283 1.923657
C 5.489235 7.893365 1.931707
C 4.243103 2.930704 1.973313
C 4.243202 5.723646 1.973132
C 4.263102 7.141031 1.923133
C 7.948208 0.770718 1.867704
C 6.715695 1.512109 1.918908
C 7.948162 7.883597 1.867463
C 6.736214 2.929091 1.966095
C 7.969106 5.048656 1.871310
C 6.736257 5.725092 1.966088
C 7.969083 3.605205 1.871020
C 6.715715 7.142007 1.918113
Co 5.494656 4.327848 2.499118
