25
Title                                   
C 7.774811 1.761596 1.976846
C 7.749511 4.309810 1.938602
C 7.787931 6.832060 1.956752
C 1.680141 0.696771 1.960768
C 0.621494 1.755006 1.960923
C 1.686847 7.850040 1.976813
C 1.338153 5.539100 1.955893
C 0.642405 4.295119 1.934261
C 1.324696 3.030671 1.909649
C 0.652983 6.808998 1.973669
C 4.219531 0.717371 1.934499
C 2.955467 1.400237 1.909576
C 4.234594 7.824573 1.938554
C 2.983023 7.135528 1.958625
C 6.733725 0.727766 1.973691
C 5.463561 1.413052 1.956398
C 6.757248 7.862670 1.956801
C 7.086307 5.573850 1.917771
C 7.060669 3.057951 1.958801
C 5.498858 7.161368 1.917654
C 2.744890 2.820373 1.819800
C 2.781468 5.730428 1.941722
C 5.655300 2.856169 1.942477
N 5.699191 5.774137 1.855802
Hf 4.237734 4.311369 1.147755
