25
Title                                   
C 7.775129 1.760384 1.909191
C 7.751763 4.290046 1.906266
C 7.775338 6.819392 1.909527
C 1.685014 0.729213 1.909741
C 0.654282 1.760150 1.909390
C 1.685179 7.849989 1.909893
C 1.361898 5.552054 1.907046
C 0.678165 4.289753 1.906687
C 1.361624 3.027307 1.906682
C 0.654481 6.819059 1.909643
C 4.214493 0.752651 1.907201
C 2.952178 1.436550 1.907169
C 4.214543 7.827234 1.907343
C 2.952384 7.142905 1.907335
C 6.744177 0.729682 1.909417
C 5.476919 1.436973 1.906604
C 6.744385 7.850396 1.909591
C 7.068030 5.552371 1.906562
C 7.068071 3.027600 1.906134
C 5.477038 7.143156 1.906858
N 2.748244 2.822637 1.903812
N 2.748560 5.756676 1.904071
N 5.681559 2.822969 1.903238
N 5.681564 5.756964 1.903580
Pt 4.215521 4.289901 1.901119
