32
Title                                   
C 0.549764 0.779970 1.732351
C 9.175679 1.475618 1.801642
C 0.537533 7.904048 1.694630
C 9.180771 2.911564 1.902975
C 0.551024 5.044069 1.764903
C 9.185963 5.750687 1.866150
C 0.557264 3.627270 1.799296
C 9.173152 7.175548 1.771404
C 3.010828 0.782818 1.760886
C 1.791004 1.497177 1.769595
C 3.005436 7.910984 1.693853
C 1.811469 2.940748 1.792229
C 3.039924 5.102974 1.682744
C 1.779920 5.766956 1.670630
C 3.050656 3.655094 1.852012
C 1.772960 7.194547 1.657685
C 5.473499 0.723913 1.908888
C 4.263874 1.464313 1.876434
C 4.275197 2.898949 2.067820
C 5.491310 3.469169 2.510337
C 4.210342 7.146625 1.697477
C 7.953588 0.751951 1.804835
C 6.710484 1.435007 1.956065
C 7.932852 7.872108 1.793424
C 6.724823 2.844987 2.224187
C 7.979670 5.051446 2.171764
C 6.815439 5.823451 2.468415
C 7.968152 3.600123 2.149391
C 6.703607 7.154865 2.018985
N 4.208991 5.821291 1.602040
N 5.458389 7.848035 1.883729
Pt 5.590196 4.984885 3.726724
