25
Title                                   
C 7.780044 1.751768 1.965344
C 7.721341 4.289909 1.918800
C 7.779924 6.827617 1.965087
C 1.692532 0.716330 1.972195
C 0.644219 1.766659 1.970225
C 1.692518 7.863378 1.971848
C 1.317431 5.543420 1.933698
C 0.619944 4.290041 1.931057
C 1.317378 3.036552 1.933998
C 0.644227 6.812974 1.969955
C 4.232150 0.739786 1.929619
C 2.974335 1.422365 1.935406
C 4.232159 7.840013 1.929134
C 2.974312 7.157520 1.934584
C 6.754626 0.726581 1.966901
C 5.500025 1.413481 1.919324
C 6.754580 7.852827 1.966627
C 7.064758 5.564502 1.914787
C 7.065053 3.014988 1.914879
C 5.499838 7.166180 1.918893
C 2.756674 2.842316 1.855517
C 2.756688 5.737541 1.854597
N 5.696353 2.797992 1.847934
N 5.696017 5.781483 1.847440
Mo 4.203412 4.289791 1.406253
