32
Title                                   
C -0.002119 1.787695 5.944012
C 1.233188 2.510293 5.985470
C 1.227043 3.940824 6.080363
C 0.008743 6.057828 6.246942
C -0.018566 4.657907 6.091385
C 0.004562 10.254394 5.830655
C 1.263132 12.424905 5.859942
C 0.022190 14.600376 5.856507
C 1.252789 15.324528 5.869827
C 1.244690 16.761028 5.892815
C 0.033735 13.163659 5.846806
C 2.470302 1.786253 5.949015
C 3.702114 2.511591 5.963121
C 3.692664 3.938591 6.022868
C 2.478684 0.351350 5.908160
C 2.419268 6.083438 6.277325
C 3.745401 8.240369 6.021175
C 2.462454 4.667600 6.118221
C 2.545962 10.313240 5.958314
C 3.738522 12.458072 5.858284
C 2.487039 14.600038 5.867781
C 3.723701 15.320161 5.867915
C 3.716346 16.756921 5.889241
C 2.491060 13.159054 5.868592
C 3.746166 11.037179 5.882865
C 1.273137 10.958084 5.856871
C 0.005499 0.353500 5.904292
N 2.640304 8.951066 6.324138
N 4.862328 8.841860 5.449516
N 1.199103 6.722181 6.503839
N 3.695699 6.815132 6.216544
Ti 0.892196 8.698203 7.238501
