32
Title                                   
C 0.012339 1.784236 5.668037
C 1.251311 2.497096 5.734749
C 1.260852 3.916644 5.917535
C 0.048771 6.026145 6.304726
C 0.024430 4.621749 6.016303
C -0.055341 10.361543 6.179656
C 1.209095 12.475142 5.890783
C -0.011111 14.622347 5.657795
C 1.225907 15.340588 5.625598
C 1.236102 16.769009 5.593519
C -0.020738 13.197270 5.775989
C 2.484804 1.784444 5.669586
C 3.723540 2.497633 5.722745
C 3.733128 3.918512 5.889239
C 2.475777 0.355113 5.601178
C 2.497491 6.022599 6.320812
C 3.747210 6.781318 6.409200
C 3.714374 8.259420 6.487407
C 2.503050 4.620417 6.020433
C 2.451513 10.378086 6.297628
C 3.683061 12.497020 5.856497
C 2.457234 14.622841 5.666995
C 3.698183 15.335771 5.620648
C 3.708430 16.768042 5.589767
C 2.446971 13.198334 5.796503
C 3.672125 11.084329 6.069370
C 1.201668 11.066066 6.132471
C 0.002565 0.355346 5.598898
C 2.554290 9.023533 6.733577
N 4.873932 8.997599 6.301502
N 1.278056 6.615024 6.543652
Rh 1.168315 8.254105 7.758502
