31
Title                                   
C -0.012518 1.798297 5.826002
C 1.216192 2.525824 5.872855
C 1.210270 3.958247 5.993235
C -0.031894 4.674365 6.043586
C 0.031594 10.327706 6.007859
C 1.253555 12.458284 5.869954
C 0.011578 14.615454 5.789737
C 1.239643 15.338160 5.785695
C 1.231471 16.774617 5.784505
C 0.020262 13.175807 5.824891
C 2.456100 1.802685 5.828280
C 3.694683 2.517474 5.849599
C 3.685715 3.948767 5.942351
C 2.463907 0.365943 5.789618
C 3.713814 6.748899 6.256082
C 3.748778 8.231089 6.262181
C 2.449298 4.675156 6.047428
C 2.493196 10.315555 6.045060
C 3.724343 12.468561 5.842491
C 2.472697 14.615400 5.792137
C 3.711603 15.331957 5.779211
C 3.703379 16.771037 5.778443
C 2.480851 13.177182 5.829352
C 3.731517 11.052796 5.923515
C -0.005843 0.362578 5.788434
C 2.503161 8.932501 6.282386
C 0.035625 8.935608 6.191362
C 2.486941 6.076738 6.242137
N -0.039643 6.046615 6.223531
N 1.259105 11.050357 5.972528
Zr 1.203039 7.484490 7.236756
