32
Title                                   
C 0.548201 0.783887 1.686581
C 9.180937 1.509056 1.770319
C 0.573930 7.900482 1.656280
C 9.157661 2.939627 1.863538
C 0.547343 5.041688 1.695370
C 9.209319 5.774128 1.771976
C 0.542430 3.618889 1.764884
C 9.213980 7.204841 1.713244
C 3.014963 0.721914 1.750696
C 1.792438 1.472377 1.712681
C 3.051658 7.856983 1.769716
C 1.771463 2.889879 1.750295
C 3.002376 4.998870 1.844810
C 1.787435 5.729917 1.680581
C 1.812031 7.153524 1.679985
C 5.490184 0.730955 1.956652
C 4.239494 1.418552 1.857381
C 4.205577 2.841489 1.947047
C 4.275364 7.121408 1.979640
C 7.958456 0.795470 1.803483
C 6.707697 1.474842 1.961689
C 7.982907 7.934399 1.776138
C 6.672395 2.907147 2.127780
C 7.999138 5.119397 2.105422
C 7.922112 3.670262 2.078955
C 6.803194 7.208877 2.071836
C 4.169166 5.707815 2.154106
C 5.371664 3.495478 2.279134
N 6.937303 5.935303 2.498430
N 5.525602 7.846212 2.041784
N 2.990443 3.580602 1.818640
Ni 5.476901 5.026922 3.144427
