25
Title                                   
C 7.777114 1.757038 1.909284
C 7.753417 4.290037 1.906220
C 7.777234 6.822726 1.909472
C 1.681993 0.727242 1.909820
C 0.652447 1.756818 1.909479
C 1.682160 7.852001 1.909964
C 1.359010 5.557755 1.906779
C 0.676562 4.289797 1.906612
C 1.358796 3.021630 1.906554
C 0.652607 6.822513 1.909634
C 4.214556 0.751419 1.907111
C 2.946758 1.433810 1.907025
C 4.214595 7.828467 1.907250
C 2.946984 7.145637 1.907242
C 6.747386 0.727611 1.909560
C 5.482448 1.434163 1.906420
C 6.747532 7.852357 1.909664
C 7.070856 5.558033 1.906369
C 7.070873 3.021976 1.905993
C 5.482513 7.145876 1.906707
N 2.745896 2.820520 1.903943
N 2.746149 5.758832 1.904203
N 5.683839 2.820838 1.903402
N 5.683827 5.759113 1.903711
Cr 4.214987 4.289803 1.901683
