32
Title                                   
C -0.000364 1.785747 5.730603
C 1.235453 2.500298 5.787722
C 1.235408 3.925337 5.951091
C 0.015912 6.040341 6.316027
C -0.004506 4.631823 6.039886
C -0.023936 10.342012 6.128108
C 1.235701 12.459772 5.864068
C 0.002550 14.618750 5.700739
C 1.235709 15.337892 5.679440
C 1.235641 16.768896 5.664626
C 0.003834 13.188966 5.784380
C 2.471319 1.785664 5.730722
C 3.707458 2.501508 5.775092
C 3.707298 3.924269 5.919751
C 2.471989 0.354965 5.671950
C 2.454679 6.040520 6.316313
C 3.707391 6.809334 6.384587
C 3.707810 8.288409 6.384871
C 2.475092 4.631964 6.040081
C 2.495744 10.342395 6.131120
C 3.707759 12.488446 5.826802
C 2.468829 14.618778 5.701023
C 3.707752 15.333244 5.673499
C 3.707666 16.766021 5.659332
C 2.467617 13.189013 5.784865
C 3.707974 11.070074 5.981268
C 1.235862 11.033169 6.047964
C -0.000715 0.354906 5.671796
N 2.539684 8.994326 6.378196
N 4.877239 8.992649 6.367355
N 1.235245 6.625765 6.554846
Rh 1.232237 8.302069 7.803176
