32
Title                                   
C 0.557219 0.773867 1.654970
C 9.190041 1.481871 1.727764
C 0.559943 7.891162 1.633440
C 9.184275 2.907946 1.826021
C 0.553725 5.037720 1.734262
C 9.199181 5.750069 1.777490
C 0.562398 3.616159 1.786801
C 9.190292 7.180517 1.693722
C 3.017361 0.755725 1.697915
C 1.799407 1.489014 1.699032
C 3.031687 7.890163 1.706830
C 1.798302 2.907205 1.794842
C 3.015339 5.039656 1.948985
C 1.794282 5.738287 1.720267
C 1.798113 7.164441 1.666968
C 5.481404 0.748090 1.883076
C 4.245982 1.457288 1.828162
C 4.244443 2.870943 2.025216
C 4.241274 7.175194 1.949477
C 7.963645 0.767083 1.742251
C 6.720497 1.454054 1.885668
C 7.954578 7.902206 1.732534
C 6.709181 2.861004 2.094825
C 7.976703 5.056598 2.032031
C 7.950015 3.614763 2.016471
C 6.732996 7.197675 1.966446
C 4.172665 5.798406 2.284427
C 5.454298 3.487043 2.384671
C 6.816012 5.842187 2.318857
N 5.481788 7.883794 1.949416
N 3.021530 3.613365 1.944430
Mo 5.515191 5.057692 3.606235
