32
Title                                   
C 0.550821 0.770715 1.671104
C 9.192402 1.477747 1.703896
C 0.563361 7.895354 1.675153
C 9.189690 2.907773 1.761598
C 0.561064 5.043084 1.705929
C 9.202397 5.750227 1.755476
C 0.560763 3.614837 1.721583
C 9.199064 7.175071 1.717865
C 3.013922 0.754331 1.763324
C 1.789735 1.470707 1.708563
C 1.797827 2.901258 1.753593
C 3.002206 5.044457 1.975412
C 1.793856 5.760809 1.753519
C 3.018740 3.611282 1.930745
C 1.794194 7.186812 1.728083
C 5.490215 0.749556 1.873162
C 4.247062 1.452532 1.862858
C 5.476021 7.888211 1.964240
C 4.246930 2.870099 2.024302
C 4.148012 5.816754 2.288572
C 5.488372 3.505219 2.289550
C 4.214563 7.195358 2.023267
C 7.961546 0.760268 1.739004
C 6.728385 1.460436 1.845345
C 7.961954 7.890795 1.768553
C 6.727097 2.873739 2.020918
C 7.982231 5.043817 1.970187
C 6.814407 5.796283 2.243558
C 7.965658 3.608346 1.938086
C 6.734429 7.182785 1.980967
N 3.010860 7.902047 1.791747
Cr 5.505980 5.050482 3.363338
