31
Title                                   
C 0.007051 1.811933 5.969982
C 1.237538 2.548099 5.981987
C 1.237708 4.006861 6.003750
C -0.015456 4.708779 6.009765
C -0.013220 10.280349 6.008138
C 1.237389 12.438628 5.979793
C 0.008314 14.606560 5.956132
C 1.237071 15.332066 5.952325
C 1.237034 16.776049 5.951448
C 0.011770 13.159671 5.969622
C 2.467971 1.812006 5.969959
C 3.709608 2.529293 5.977504
C 3.709793 3.955958 5.995167
C 2.470644 0.369611 5.954975
C 3.710271 6.767281 6.012368
C 3.710199 8.243072 6.009436
C 2.491132 4.708745 6.009933
C 2.489003 10.280478 6.008356
C 3.709519 12.456712 5.974930
C 2.465840 14.606389 5.956116
C 3.709008 15.327721 5.951253
C 3.709037 16.770551 5.950286
C 2.462896 13.159492 5.969673
C 3.709882 11.048043 5.991558
C 0.003532 0.369461 5.954990
N 2.532908 8.939030 6.025322
N 4.887421 8.938964 6.025022
N 2.546991 6.079221 6.025416
N -0.070525 6.079304 6.025151
N 1.237779 10.970369 5.999908
Zn 1.238389 7.477451 6.130935
