32
Title                                   
C 0.552709 0.782191 1.656727
C 9.183154 1.499903 1.671661
C 0.573411 7.902627 1.681425
C 9.165908 2.928962 1.694390
C 0.562590 5.049672 1.653036
C 9.202399 5.761539 1.746941
C 0.552372 3.620130 1.660536
C 9.211834 7.193365 1.750359
C 3.015653 0.750724 1.752020
C 1.796154 1.477662 1.683721
C 1.793235 2.900101 1.699966
C 3.002881 5.028872 1.968137
C 1.799989 5.753786 1.725652
C 3.042118 3.595130 1.898458
C 1.803281 7.188290 1.721617
C 5.485486 0.739425 1.906284
C 5.483391 7.874412 2.029598
C 4.236243 2.816360 2.042333
C 4.215428 7.194323 2.077208
C 7.955691 0.773659 1.728036
C 6.709173 1.467063 1.832165
C 7.976840 7.911056 1.817671
C 6.705174 2.864779 1.983969
C 7.989889 5.080093 1.964097
C 7.904578 3.645512 1.873534
C 6.765247 7.209175 2.063998
C 4.118208 5.822451 2.375707
N 5.452504 3.380496 2.440271
N 6.887624 5.852499 2.398993
N 3.031169 7.909662 1.798680
N 4.236268 1.429464 1.882860
Ta 5.523160 5.007807 3.533450
