31
Title                                   
C -0.042860 1.803133 5.896065
C 1.180868 2.533995 5.922135
C 1.154597 3.973280 6.003398
C -0.092177 4.693442 6.087483
C 0.086534 10.291629 5.983445
C 1.290970 12.446634 5.907042
C 0.026961 14.608602 5.860864
C 1.250172 15.334221 5.860398
C 1.224731 16.774500 5.862922
C 0.052028 13.164402 5.876813
C 2.426918 1.808978 5.879148
C 3.659835 2.526951 5.893456
C 3.631871 3.964452 5.945244
C 2.452123 0.367867 5.861049
C 3.653088 6.773951 6.140854
C 3.750181 8.245622 6.122070
C 2.386445 4.690267 5.965392
C 2.560130 10.311742 6.013242
C 3.760213 12.460775 5.875745
C 2.487741 14.610714 5.859689
C 3.721188 15.327506 5.854782
C 3.696232 16.769648 5.856610
C 2.512551 13.164096 5.876681
C 3.789801 11.035574 5.921178
C -0.018728 0.364761 5.868970
C 0.052231 8.878641 6.080134
C 2.431372 6.113601 5.981294
N 2.571183 8.969741 6.201726
N -0.120854 6.055728 6.351424
N 1.314230 11.009907 5.972722
Mo 1.292841 7.483787 6.919224
