32
Title                                   
C 0.555304 0.776379 1.742255
C 9.193327 1.470805 1.772542
C 0.560143 7.899786 1.741643
C 9.198420 2.901394 1.810526
C 0.563256 5.043078 1.745579
C 9.203615 5.748141 1.810136
C 0.569499 3.615468 1.766064
C 9.195774 7.171438 1.784873
C 3.018331 0.762671 1.812640
C 1.794822 1.483957 1.771559
C 1.809545 2.915776 1.798559
C 3.001489 5.068852 1.940994
C 1.784208 5.772571 1.769053
C 3.038662 3.643168 1.935391
C 1.781304 7.193711 1.768003
C 5.484423 0.739481 1.919728
C 4.253584 1.458031 1.902872
C 5.460266 7.863468 1.965669
C 4.263818 2.885993 2.042701
C 5.509963 3.499548 2.295157
C 4.202187 7.187272 1.980295
C 7.962163 0.748261 1.810913
C 6.727425 1.445073 1.911805
C 7.958213 7.878463 1.833979
C 6.743407 2.863142 2.054857
C 7.988793 5.028647 2.003389
C 6.823678 5.776708 2.258883
C 7.977345 3.596110 1.964855
C 6.726456 7.158982 2.009750
N 4.119850 5.843506 2.190966
N 3.005154 7.911829 1.819069
Co 5.459339 5.059478 3.138794
