32
Title                                   
C 0.551454 0.764769 1.697527
C 9.192412 1.478762 1.705850
C 0.563372 7.883056 1.717963
C 9.189000 2.909669 1.745876
C 0.553813 5.057377 1.760109
C 0.553208 3.626118 1.743334
C 9.202053 7.163113 1.759992
C 3.017342 0.762657 1.788755
C 1.796441 1.474529 1.738251
C 1.790907 2.911112 1.777591
C 2.997752 5.031648 2.022252
C 1.785695 5.765757 1.824614
C 3.019428 3.603973 1.956783
C 1.800872 7.191741 1.780144
C 5.485232 0.755575 1.859020
C 5.472799 7.894611 1.974199
C 4.247637 2.855258 2.043105
C 4.224421 7.188902 2.063723
C 7.963203 0.754859 1.741619
C 6.717901 1.466268 1.821366
C 7.963599 7.882530 1.796612
C 6.738761 2.884891 1.978840
C 7.988978 5.059470 1.995493
C 7.969010 3.618863 1.905547
C 6.729235 7.196430 1.997404
C 4.155215 5.812407 2.316852
C 5.484669 3.490607 2.271582
C 6.821737 5.802213 2.268542
N 3.014539 7.906949 1.824410
N 4.235111 1.442006 1.865199
N 9.205551 5.754113 1.794391
Fe 5.502413 5.020956 3.176554
