25
Title                                   
C 7.768965 1.761736 1.909205
C 7.752915 4.290024 1.906256
C 7.769119 6.818047 1.909496
C 1.686730 0.735352 1.909732
C 0.660514 1.761460 1.909496
C 1.686986 7.843900 1.909925
C 1.363163 5.551881 1.906784
C 0.676994 4.289781 1.906644
C 1.362941 3.027493 1.906577
C 0.660779 6.817850 1.909621
C 4.214615 0.751846 1.907118
C 2.952628 1.437924 1.907068
C 4.214623 7.827959 1.907278
C 2.952794 7.141493 1.907236
C 6.742662 0.735758 1.909526
C 5.476652 1.438322 1.906484
C 6.742791 7.844206 1.909628
C 7.066651 5.552174 1.906346
C 7.066649 3.027864 1.906019
C 5.476756 7.141748 1.906748
N 2.758892 2.833609 1.903798
N 2.759163 5.745738 1.904046
N 5.670707 2.833996 1.903231
N 5.670754 5.745967 1.903534
Mn 4.215094 4.289885 1.902302
