32
Title                                   
C 0.560109 0.780045 1.714783
C 9.195950 1.499543 1.726892
C 0.577373 7.893652 1.693162
C 9.179168 2.936178 1.738174
C 0.558792 5.062277 1.768854
C 0.551351 3.635295 1.769590
C 9.221956 7.185684 1.652244
C 3.034037 0.748164 1.822128
C 1.805817 1.475338 1.792772
C 1.794966 2.906655 1.876822
C 2.987214 5.024210 2.178198
C 1.791575 5.764574 1.880057
C 3.010620 3.592718 2.137841
C 1.815270 7.186437 1.792772
C 5.503089 0.736789 1.884005
C 5.504064 7.854494 1.884535
C 4.250733 2.829880 2.230679
C 4.248217 7.160859 2.098422
C 7.963975 0.774186 1.720477
C 6.713089 1.481242 1.833983
C 7.977278 7.900704 1.664703
C 6.722699 2.916757 2.020575
C 7.951633 5.110874 1.651828
C 7.940940 3.658402 1.803539
C 6.758853 7.158878 1.682373
C 4.121021 5.829319 2.503567
C 5.482113 3.448948 2.481489
N 6.822440 5.795626 1.556037
N 3.031978 7.891357 1.832177
N 4.249777 1.423785 1.945204
N 9.216703 5.773292 1.679236
Pt 5.390962 4.975024 3.696383
