25
Title                                   
C 7.777621 1.758607 1.908899
C 7.740867 4.299311 1.906049
C 7.776974 6.828188 1.909371
C 1.689328 0.720960 1.909563
C 0.646023 1.763982 1.909116
C 1.683993 7.852575 1.909560
C 1.333663 5.565543 1.906768
C 0.648196 4.297149 1.906524
C 1.331407 3.039162 1.907471
C 0.654595 6.821357 1.909302
C 4.221813 0.723522 1.907161
C 2.964070 1.406910 1.907926
C 4.224147 7.816067 1.906999
C 2.949141 7.147494 1.907076
C 6.746138 0.729519 1.909237
C 5.490274 1.408847 1.906388
C 6.753199 7.851919 1.909439
C 7.079152 5.570549 1.906526
C 7.072741 3.024001 1.905810
C 5.495298 7.154193 1.906638
C 2.764519 2.839869 1.906524
N 2.738174 5.760625 1.904143
N 5.685823 2.812927 1.903287
N 5.697617 5.772686 1.903834
Ti 4.205766 4.280050 1.900492
