32
Title                                   
C 0.551310 0.782028 1.729449
C 9.188528 1.500162 1.748730
C 0.575829 7.899834 1.727033
C 9.164873 2.934696 1.805189
C 0.564182 5.051116 1.763386
C 9.206419 5.766268 1.792456
C 0.548649 3.619119 1.787418
C 9.216033 7.190350 1.758381
C 3.017323 0.743096 1.802151
C 1.797444 1.472067 1.768180
C 1.793237 2.896805 1.813538
C 3.020033 5.020072 2.006383
C 1.802592 5.757479 1.808768
C 3.031998 3.590240 1.959743
C 1.802826 7.182388 1.778170
C 5.495947 0.728700 1.872554
C 5.492033 7.879644 1.976815
C 4.253644 2.818875 2.018730
C 4.236775 7.177433 2.061938
C 7.958933 0.775876 1.749295
C 6.707274 1.461123 1.820495
C 7.982247 7.913738 1.782052
C 6.684834 2.873859 1.969881
C 7.964868 5.094310 1.967494
C 7.901997 3.647014 1.928938
C 6.771264 7.200019 1.972788
C 4.155053 5.813050 2.305248
N 5.437532 3.424133 2.212977
N 6.841407 5.861217 2.205686
N 3.027000 7.901061 1.832315
N 4.230948 1.417918 1.865040
Co 5.510733 5.017500 3.122276
