32
Title                                   
C 0.557821 0.779634 1.723504
C 9.191764 1.481520 1.755138
C 0.550550 7.899914 1.723117
C 9.186602 2.902708 1.809592
C 0.557484 5.038171 1.755886
C 9.200490 5.750462 1.811580
C 0.562603 3.615317 1.781891
C 9.192019 7.176594 1.780828
C 3.016733 0.773471 1.765667
C 1.792166 1.494511 1.746852
C 3.003510 7.905315 1.787388
C 1.810131 2.921377 1.790879
C 3.012901 5.079463 1.902732
C 1.776670 5.762284 1.769087
C 3.061252 3.638560 1.881591
C 1.774449 7.189586 1.748340
C 5.485057 0.731965 1.883882
C 4.257549 1.459323 1.835679
C 5.476591 7.865326 1.977439
C 4.289217 2.872865 1.924305
C 4.212264 7.182880 1.948364
C 7.965089 0.758556 1.788356
C 6.726553 1.443044 1.856920
C 7.962174 7.889157 1.832917
C 6.716706 2.855784 1.956334
C 7.979474 5.040190 2.015596
C 6.831926 5.801592 2.304938
C 7.947891 3.603919 1.943272
C 6.742470 7.179059 2.037954
N 4.155206 5.822245 2.093127
N 5.506417 3.493506 2.094403
Cr 5.432036 5.002891 3.285940
