32
Title                                   
C 0.554835 0.791795 1.733735
C 9.178766 1.498892 1.745776
C 0.559597 7.899215 1.703381
C 9.173650 2.922463 1.823899
C 0.551625 5.049536 1.841321
C 9.199131 5.748419 1.774559
C 0.551123 3.619036 1.892894
C 9.192797 7.178545 1.704847
C 3.016484 0.763105 1.762378
C 1.797662 1.497135 1.814720
C 3.026139 7.896792 1.747416
C 1.800748 2.916761 1.963817
C 3.013622 5.061925 2.145259
C 1.790120 5.740721 1.853738
C 1.791810 7.174667 1.756819
C 5.492279 0.729314 1.811981
C 4.254174 1.455215 1.869354
C 4.278590 2.853302 2.169861
C 4.237171 7.170639 1.959586
C 7.961657 0.759007 1.693078
C 6.719623 1.452410 1.763815
C 7.959093 7.898471 1.693862
C 6.701538 2.862446 1.993234
C 7.932147 5.077466 1.800190
C 6.748339 7.139945 1.751968
C 4.142171 5.854549 2.456377
C 5.520832 3.446887 2.485992
N 6.784758 5.786142 1.748062
N 5.491274 7.848969 1.829763
N 3.027825 3.609990 2.174340
N 7.924821 3.626482 1.864184
Cu 5.559362 5.080947 3.383296
