31
Title                                   
C 0.554918 0.759683 1.763328
C 9.188381 1.469459 1.791592
C 0.554779 7.894833 1.763280
C 9.202710 2.892349 1.808817
C 0.555250 5.040352 1.793233
C 9.202608 5.761788 1.809033
C 0.555005 3.613750 1.793048
C 9.188315 7.184853 1.791735
C 3.033238 0.770943 1.832044
C 1.791286 1.469580 1.789467
C 3.033156 7.883233 1.831706
C 1.776895 2.892561 1.807238
C 2.994067 5.045977 1.882027
C 1.777212 5.761854 1.807151
C 2.993796 3.608141 1.882235
C 1.791041 7.184959 1.788955
C 5.490015 0.766284 1.946332
C 4.265142 1.512262 1.921010
C 5.489820 7.887844 1.946204
C 4.228006 2.936943 2.003341
C 4.228222 5.717333 2.002756
C 4.265182 7.142155 1.920330
C 7.946652 0.771244 1.836986
C 6.714587 1.512941 1.926176
C 7.946417 7.883230 1.836927
C 6.751651 2.938135 2.010445
C 7.986130 5.046005 1.887198
C 6.751363 5.716278 2.010521
C 7.986396 3.608293 1.887095
C 6.714443 7.141585 1.926296
Tc 5.484691 4.327197 2.822795
