32
Title                                   
C 0.549144 0.775543 1.740372
C 9.187950 1.497975 1.739687
C 0.569075 7.889720 1.751038
C 9.172112 2.925036 1.771005
C 0.558466 5.057346 1.779108
C 0.545984 3.626177 1.787239
C 9.210868 7.182287 1.763558
C 3.018361 0.752742 1.814781
C 1.793297 1.476262 1.777166
C 1.788076 2.904976 1.819716
C 3.000290 5.032193 2.063281
C 1.786154 5.760892 1.851248
C 3.035543 3.598096 1.958538
C 1.805261 7.192751 1.819379
C 5.493258 0.739118 1.876489
C 5.487415 7.869808 1.996920
C 4.258522 2.845404 1.959875
C 4.224545 7.182007 2.124509
C 7.958145 0.765108 1.750691
C 6.710522 1.459702 1.806019
C 7.978615 7.897026 1.785919
C 6.693390 2.890698 1.877060
C 7.978729 5.096517 1.893324
C 7.917685 3.651512 1.840684
C 6.754221 7.186578 1.954250
C 4.130156 5.822178 2.408861
N 5.451579 3.477292 2.035812
N 6.849758 5.822710 2.111899
N 3.019170 7.907848 1.861354
N 4.240904 1.422836 1.871413
N 9.207496 5.758897 1.778472
Cr 5.559074 4.943953 3.343835
