32
Title                                   
C 0.537053 0.791078 1.940164
C 9.162406 1.487702 1.927313
C 0.537037 7.901584 1.931924
C 9.156052 2.913840 1.873753
C 0.536575 5.046928 1.907152
C 9.188592 5.753840 1.810522
C 0.546727 3.615842 1.905797
C 9.176110 7.192283 1.884651
C 2.990875 0.758993 1.880985
C 1.779782 1.502752 1.928988
C 2.993021 7.891638 1.924750
C 1.787914 2.924806 1.955042
C 3.031676 5.077099 2.100296
C 1.785623 5.740843 1.999032
C 1.769677 7.177420 1.971600
C 5.450798 0.712331 1.851276
C 4.226264 1.443049 1.854998
C 4.256201 2.874672 1.902472
C 4.210423 7.157763 1.998792
C 7.937628 0.739372 1.933410
C 6.687396 1.420431 1.868424
C 7.936705 7.878621 1.957451
C 6.653302 2.842793 1.808212
C 7.940118 5.085456 1.573203
C 7.884941 3.636274 1.750127
C 6.707799 7.092418 1.981765
N 4.207858 5.809359 2.274730
N 5.436666 3.510214 1.884870
N 6.774429 5.834231 1.239063
N 5.435480 7.835572 1.869830
N 3.058531 3.636484 2.011754
Sc 6.150105 5.125502 3.011156
