32
Title                                   
C 0.000187 1.792673 5.674304
C 1.235459 2.506875 5.755021
C 1.235418 3.919390 5.972410
C 0.014598 5.996069 6.410626
C -0.005777 4.625919 6.076940
C -0.020110 10.380322 6.205674
C 1.235620 12.484758 5.843597
C 0.001028 14.632147 5.622339
C 1.235640 15.350356 5.593825
C 1.235594 16.779424 5.576579
C 0.001310 13.206366 5.739410
C 2.470910 1.792686 5.674302
C 3.707518 2.510717 5.734217
C 3.707464 3.918319 5.914262
C 2.472017 0.367333 5.589661
C 2.456316 5.996017 6.410566
C 3.707415 8.191257 6.374699
C 2.476486 4.625915 6.076820
C 2.491133 10.380504 6.205689
C 3.707749 12.505320 5.806476
C 2.470233 14.632103 5.622374
C 3.707604 15.347889 5.586121
C 3.707586 16.777646 5.570169
C 2.470018 13.206292 5.739434
C 3.707606 11.093080 6.022403
C 1.235499 11.073106 6.102299
C -0.000938 0.367306 5.589624
C 2.553817 8.983324 6.533564
C 4.861242 8.983036 6.533319
N 1.235503 6.588465 6.725527
N 3.707441 6.739983 6.487137
Ru 1.235749 8.292724 7.681915
