32
Title                                   
C 0.548547 0.779431 1.654026
C 9.184266 1.495915 1.648825
C 0.565801 7.894080 1.681005
C 9.167927 2.926621 1.701818
C 0.554635 5.062284 1.727684
C 0.546886 3.632525 1.718062
C 9.211267 7.178244 1.719476
C 3.013088 0.761392 1.767161
C 1.794742 1.480651 1.707572
C 1.793293 2.916160 1.764356
C 2.982594 5.036877 2.084305
C 1.783831 5.767754 1.817533
C 3.034623 3.606278 1.982544
C 1.803363 7.199114 1.766459
C 5.492535 0.727592 1.835512
C 5.478441 7.865712 1.989307
C 4.253201 2.830170 2.051576
C 4.210133 7.198513 2.136757
C 7.960281 0.757476 1.664972
C 6.708743 1.452756 1.754360
C 7.972375 7.889848 1.737101
C 6.713248 2.859079 1.932720
C 7.994183 5.084114 1.962416
C 7.920515 3.644398 1.866296
C 6.754094 7.194003 1.977580
C 4.103139 5.835165 2.503187
N 5.473100 3.393792 2.353040
N 6.898595 5.851971 2.336469
N 3.013651 7.909818 1.831027
N 4.236176 1.425390 1.858800
N 9.207903 5.763218 1.760108
Re 5.558589 4.990849 3.421445
