31
Title                                   
C 0.555711 0.760615 1.601711
C 9.193424 1.468204 1.661572
C 0.555597 7.894013 1.601945
C 9.211883 2.890122 1.642644
C 0.555964 5.042638 1.558354
C 9.211797 5.764126 1.642753
C 0.555976 3.611795 1.557865
C 9.193175 7.186205 1.661875
C 3.012202 0.765008 1.861979
C 1.786572 1.468392 1.674704
C 3.011996 7.889303 1.862663
C 1.768373 2.890442 1.657916
C 2.956434 5.055633 1.927435
C 1.768328 5.763954 1.658683
C 2.956475 3.598544 1.926611
C 1.786274 7.186029 1.675736
C 5.489957 0.760266 2.162177
C 4.223671 1.490702 2.107244
C 5.489846 7.893844 2.162500
C 4.122562 2.884798 2.231497
C 4.122251 5.769344 2.232803
C 4.223444 7.163618 2.108427
C 7.966560 0.765046 1.843375
C 6.755301 1.490773 2.090236
C 7.966346 7.889343 1.843334
C 6.855591 2.885681 2.204050
C 8.021389 5.055487 1.898471
C 6.855840 5.768778 2.203843
C 8.021399 3.598519 1.898835
C 6.755278 7.163554 2.090336
Ag 5.491754 4.327267 2.567727
