31
Title                                   
C 0.555005 0.764820 1.878568
C 9.197098 1.471501 1.882741
C 0.554946 7.889715 1.878489
C 9.210710 2.902657 1.880727
C 0.554938 5.035781 1.873842
C 9.210734 5.751816 1.880567
C 0.554860 3.618923 1.873872
C 9.197100 7.183003 1.882593
C 3.018253 0.770444 1.896997
C 1.782278 1.471591 1.883941
C 3.018216 7.883910 1.897072
C 1.768443 2.902739 1.882223
C 2.984974 5.059406 1.898350
C 1.768648 5.751793 1.882509
C 2.985167 3.594486 1.897884
C 1.782133 7.183014 1.884105
C 5.489591 0.793078 1.917446
C 4.235599 1.512824 1.911703
C 5.489480 7.860883 1.917379
C 4.235310 7.141242 1.911815
C 7.961148 0.770363 1.895924
C 6.743837 1.512781 1.910988
C 7.960983 7.883871 1.895773
C 7.994482 5.059609 1.895594
C 7.994211 3.594710 1.895898
C 6.743781 7.141357 1.910489
N 4.169102 2.896805 1.915586
N 4.168910 5.757375 1.916206
N 6.810713 2.896752 1.914375
N 6.810816 5.757502 1.913924
Cr 5.489918 4.327291 1.941718
