32
Title                                   
C 0.555070 0.769705 1.609190
C 9.188774 1.482095 1.654324
C 0.555005 7.890250 1.628763
C 9.181254 2.911098 1.725795
C 0.554996 5.037559 1.699780
C 9.190800 5.749796 1.756627
C 0.554952 3.619147 1.698795
C 9.187524 7.177732 1.694062
C 3.015059 0.764720 1.703321
C 1.790760 1.482147 1.653769
C 3.027646 7.894774 1.738997
C 1.798130 2.911017 1.725159
C 2.999873 5.052711 2.003033
C 1.788710 5.749788 1.755823
C 3.025264 3.613012 1.943482
C 1.791966 7.177849 1.693658
C 5.489714 0.734600 1.876495
C 4.250019 1.452035 1.846028
C 4.250242 2.858169 2.045585
C 4.161795 5.827135 2.373156
C 5.489670 3.475064 2.407805
C 4.245290 7.197835 1.985154
C 7.964539 0.764506 1.704206
C 6.729704 1.451890 1.846912
C 7.951861 7.894620 1.739795
C 6.729406 2.858033 2.046572
C 7.979829 5.052797 2.004528
C 6.818188 5.827251 2.374506
C 7.954282 3.613078 1.944811
C 6.734225 7.197769 1.985879
N 5.489723 7.887958 1.965718
Tc 5.489495 5.035048 3.481775
