32
Title                                   
C 0.004668 1.795134 5.674508
C 1.240830 2.516262 5.736766
C 1.244321 3.939731 5.914382
C 0.028730 6.019514 6.331936
C -0.002752 4.647431 5.999648
C -0.025554 10.332238 6.134192
C 1.230905 12.459814 5.864352
C 0.000737 14.617877 5.661796
C 1.235212 15.339537 5.640248
C 1.237042 16.772860 5.616706
C -0.000248 13.186510 5.757626
C 2.474703 1.794539 5.678349
C 3.711788 2.513481 5.718238
C 3.713264 3.930199 5.863156
C 2.473733 0.362437 5.622908
C 2.460440 6.028325 6.357718
C 3.718869 8.264487 6.488708
C 2.490098 4.647907 6.017877
C 2.489543 10.368049 6.299427
C 3.705064 12.482913 5.831097
C 2.468862 14.619385 5.673740
C 3.707657 15.336903 5.634331
C 3.709500 16.771487 5.611221
C 2.465716 13.187758 5.783335
C 3.699778 11.066081 6.032705
C 1.233449 11.037994 6.105444
C 0.001897 0.363955 5.619682
C 2.568485 9.025629 6.828611
N 4.879813 8.951697 6.247058
N 1.241905 6.599626 6.655383
N 3.724582 6.793497 6.445181
Fe 1.124297 8.274067 7.604973
