32
Title                                   
C 0.001632 1.794984 5.745749
C 1.235458 2.513317 5.800867
C 1.235554 3.939535 5.957271
C -0.002991 6.045570 6.304376
C -0.005495 4.643924 6.040237
C -0.011929 10.344848 6.130529
C 1.235484 12.471516 5.863059
C 0.001273 14.626708 5.709101
C 1.235555 15.347557 5.692115
C 1.235463 16.776444 5.682201
C 0.001405 13.199598 5.784767
C 2.469419 1.794887 5.745762
C 3.707474 2.511994 5.788220
C 3.707645 3.927898 5.923212
C 2.470839 0.366386 5.689433
C 2.474041 6.045578 6.304366
C 3.707593 8.173670 6.339818
C 2.476473 4.643855 6.040209
C 2.483024 10.344796 6.130218
C 3.707489 12.491075 5.827035
C 2.469733 14.626822 5.709050
C 3.707687 15.345102 5.685488
C 3.707550 16.775729 5.676542
C 2.469673 13.199667 5.784703
C 3.707619 11.072301 5.986481
C 1.235578 11.058268 6.047749
C 0.000102 0.366489 5.689412
C 2.558194 8.951044 6.363822
C 4.856894 8.951144 6.364525
C 1.235506 6.682755 6.564193
N 3.707577 6.746580 6.348064
Pd 1.235814 8.267283 7.732726
