32
Title                                   
C 0.555023 0.767282 1.682361
C 9.191008 1.477478 1.716742
C 0.554969 7.890123 1.693033
C 9.186698 2.905948 1.761533
C 0.555051 5.036486 1.734349
C 9.197028 5.751965 1.783601
C 0.554924 3.617889 1.734643
C 9.194288 7.178157 1.747436
C 3.014521 0.764917 1.767231
C 1.788460 1.477630 1.716272
C 3.013277 7.891984 1.805240
C 1.792725 2.906141 1.760887
C 2.997618 5.042485 1.970596
C 1.782601 5.752040 1.782391
C 3.014281 3.608975 1.928194
C 1.785206 7.178204 1.746501
C 5.489764 0.751677 1.885044
C 4.249037 1.465130 1.863779
C 5.489726 7.890990 1.978117
C 4.246729 2.875502 2.007425
C 4.171142 5.795398 2.238718
C 5.489670 3.517684 2.265754
C 4.235830 7.190136 2.000806
C 7.964954 0.764795 1.768001
C 6.730579 1.465153 1.864490
C 7.966231 7.891828 1.806210
C 6.732881 2.875500 2.008387
C 7.982273 5.042312 1.972709
C 6.808925 5.795273 2.240493
C 7.965323 3.608799 1.929724
C 6.743680 7.189786 2.001863
Fe 5.489341 5.043524 3.150971
