31
Title                                   
C 0.551853 0.761822 1.662207
C 9.189973 1.470897 1.722027
C 0.551918 7.892750 1.662502
C 9.214313 2.893933 1.718952
C 0.563290 5.037795 1.632248
C 9.214366 5.760731 1.719886
C 0.563265 3.616842 1.631931
C 9.190000 7.183757 1.722666
C 3.015430 0.768414 1.824721
C 1.784869 1.471427 1.702024
C 3.015428 7.885574 1.824800
C 1.783214 2.900905 1.687408
C 3.000208 5.061099 1.858771
C 1.783389 5.753488 1.687593
C 3.000077 3.592919 1.858845
C 1.784869 7.183000 1.702228
C 5.475668 0.773460 2.103797
C 4.218712 1.516628 2.014921
C 5.475674 7.880454 2.103879
C 4.218834 7.137362 2.014834
C 7.953823 0.767212 1.862853
C 6.739170 1.505664 2.072710
C 7.953771 7.887189 1.863275
C 6.809949 2.916573 2.213200
C 8.020204 5.053109 1.952639
C 6.809839 5.737852 2.213508
C 8.020239 3.601328 1.952248
C 6.739146 7.148630 2.073152
N 4.161363 2.892496 2.080782
N 4.161547 5.761491 2.080324
Cr 5.476974 4.327240 2.598369
