32
Title                                   
C 0.555955 0.778335 1.703093
C 9.182857 1.478243 1.748623
C 0.547668 7.899944 1.701033
C 9.177833 2.908005 1.836765
C 0.555163 5.038630 1.763259
C 9.189657 5.749366 1.836146
C 0.560931 3.619589 1.790177
C 9.183976 7.174477 1.765464
C 3.014422 0.773842 1.738591
C 1.795651 1.494854 1.730496
C 3.013844 7.906156 1.736393
C 1.817846 2.928943 1.777997
C 3.035594 5.088187 1.830294
C 1.787223 5.760864 1.738652
C 3.070639 3.641956 1.849226
C 1.781045 7.187063 1.711474
C 5.481835 0.719305 1.886850
C 4.265134 1.448436 1.830189
C 4.301396 2.868595 1.929940
C 4.222864 7.174448 1.859465
C 7.962524 0.752411 1.764925
C 6.716789 1.431522 1.874135
C 7.944174 7.879104 1.785093
C 6.704404 2.847784 2.021501
C 7.970202 5.050326 2.089139
C 6.817176 5.827861 2.436051
C 7.942112 3.607165 2.013438
C 6.725884 7.166334 2.003459
N 4.204525 5.830775 1.954189
N 5.501213 3.484657 2.176116
N 5.468238 7.861821 1.937823
Ir 5.434987 5.032193 3.493502
