32
Title                                   
C 0.553058 0.788919 1.777295
C 9.183708 1.493411 1.821062
C 0.550206 7.910831 1.759954
C 9.170339 2.925383 1.883991
C 0.552411 5.042457 1.804498
C 9.197617 5.761088 1.855810
C 0.555077 3.624888 1.825054
C 9.198297 7.187677 1.816397
C 3.014533 0.767980 1.761993
C 1.794180 1.494920 1.781714
C 3.004503 7.893385 1.744208
C 1.813162 2.926732 1.804655
C 3.028615 5.088975 1.776560
C 1.775280 5.764567 1.761827
C 3.059612 3.634630 1.834757
C 1.774726 7.189011 1.739090
C 5.489347 0.707657 1.849527
C 4.261622 1.447396 1.819572
C 5.486283 7.828235 1.857953
C 4.293808 2.869866 1.932529
C 4.212453 7.136986 1.777983
C 7.962466 0.765981 1.819485
C 6.717539 1.446327 1.877990
C 7.968716 7.891541 1.836742
C 6.686973 2.863067 2.028656
C 7.961586 5.078316 2.031037
C 7.927343 3.628097 2.016354
C 6.756652 7.147376 1.959418
N 4.190881 5.784594 1.760170
N 5.487990 3.487882 2.170137
N 6.826580 5.807977 2.196231
Pd 5.478198 5.025039 3.630851
