32
Title                                   
C -0.000947 1.784875 5.568121
C 1.235590 2.495853 5.664637
C 1.235535 3.901884 5.922844
C 0.005594 5.975755 6.454526
C -0.006280 4.600014 6.065029
C -0.014037 10.420666 6.352979
C 1.235543 12.498042 5.847768
C 0.000645 14.629617 5.530854
C 1.235513 15.344984 5.477938
C 1.235521 16.773170 5.440680
C 0.001232 13.210564 5.709626
C 2.472126 1.784827 5.568046
C 3.707617 2.494138 5.653601
C 3.707551 3.903478 5.892711
C 2.472147 0.359103 5.457512
C 2.465457 5.975783 6.454650
C 3.707597 6.741651 6.596810
C 3.707671 8.221281 6.710291
C 2.477281 4.600030 6.065081
C 2.485173 10.420313 6.352646
C 3.707557 12.513703 5.823213
C 2.470418 14.629694 5.531054
C 3.707566 15.341595 5.474346
C 3.707605 16.772744 5.437713
C 2.469812 13.210661 5.709743
C 3.707584 11.119087 6.132731
C 1.235604 11.106850 6.185630
C -0.001025 0.359146 5.457555
C 2.533913 9.055952 6.760154
C 4.881188 9.056222 6.759838
N 1.235497 6.549658 6.741335
Fe 1.235083 8.195984 7.651638
