32
Title                                   
C 0.551345 0.786039 1.719216
C 9.177303 1.502396 1.766401
C 0.563770 7.895992 1.684539
C 9.172503 2.925875 1.835468
C 0.555821 5.043191 1.729809
C 9.203882 5.750802 1.728176
C 0.544990 3.615595 1.806761
C 9.199139 7.184570 1.703958
C 3.014982 0.747940 1.779939
C 1.794478 1.481475 1.772516
C 3.038020 7.880980 1.780895
C 1.785966 2.901557 1.844781
C 3.004633 5.025859 1.983005
C 1.786273 5.731852 1.758017
C 1.801641 7.166673 1.724636
C 5.495305 0.740887 1.915108
C 4.246755 1.444376 1.897223
C 4.239869 2.857754 2.065370
C 4.254936 7.158321 1.984926
C 7.962075 0.776083 1.759650
C 6.719939 1.471416 1.878198
C 7.965789 7.913532 1.750637
C 6.698189 2.891151 2.043540
C 7.968266 5.080971 1.908949
C 6.770322 7.177215 1.920452
C 4.158651 5.768118 2.297477
C 5.455387 3.510995 2.371349
N 6.850053 5.825792 2.145700
N 5.507218 7.849180 1.955963
N 3.010234 3.595539 1.979534
N 7.927760 3.643829 1.947740
Fe 5.508267 5.065236 3.273568
