32
Title                                   
C 0.555098 0.768766 1.614083
C 9.191368 1.479596 1.656643
C 0.554982 7.889417 1.629518
C 9.187294 2.904007 1.723392
C 0.555001 5.034100 1.690409
C 9.200310 5.749956 1.750434
C 0.554853 3.613095 1.694053
C 9.195195 7.177254 1.700094
C 3.015706 0.765381 1.709686
C 1.788159 1.479729 1.655735
C 3.014204 7.894584 1.761793
C 1.792044 2.904127 1.722107
C 2.983176 5.042167 1.996670
C 1.779171 5.749889 1.748436
C 3.015280 3.609398 1.935991
C 1.784333 7.177257 1.698631
C 5.489874 0.752309 1.861048
C 4.248235 1.463596 1.832889
C 5.489862 7.887570 1.981639
C 4.240502 2.867350 2.029422
C 4.128216 5.817576 2.352013
C 5.489524 3.476467 2.373965
C 4.227997 7.200470 2.018270
C 7.963925 0.765043 1.711110
C 6.731689 1.463598 1.834185
C 7.965234 7.894399 1.763522
C 6.739135 2.867292 2.031091
C 7.996906 5.042120 2.000514
C 6.852155 5.817725 2.356073
C 7.964415 3.609326 1.938625
C 6.751550 7.200096 2.020462
W 5.488370 5.047529 3.520996
