31
Title                                   
C 0.541704 0.761520 1.682635
C 9.175004 1.483128 1.705820
C 0.568025 7.892825 1.682277
C 9.200516 2.914750 1.689782
C 0.557403 5.038687 1.632033
C 9.219387 5.781321 1.717932
C 0.552594 3.615638 1.632259
C 9.207881 7.202243 1.746102
C 3.013352 0.754874 1.879030
C 1.771254 1.452213 1.747346
C 3.043650 7.862436 1.835529
C 1.760030 2.873186 1.719683
C 2.976231 5.004066 1.843744
C 1.778901 5.739622 1.690983
C 2.954887 3.557769 1.925893
C 1.804114 7.171322 1.706595
C 5.478249 0.779936 2.099095
C 4.204453 1.506917 2.097374
C 5.500782 7.874192 2.099288
C 4.197268 5.681195 2.009249
C 4.274339 7.120227 1.978027
C 7.935546 0.791953 1.834038
C 6.704622 1.533907 1.976365
C 7.965942 7.899621 1.877341
C 6.782153 2.973166 2.007156
C 8.024799 5.096492 1.923759
C 8.003321 3.650165 1.841500
C 6.774887 7.147281 2.096026
N 4.112576 2.887336 2.256633
N 6.867268 5.766844 2.255186
Ir 5.490237 4.327211 2.630618
