32
Title                                   
C 0.545600 0.766389 1.678062
C 9.185057 1.493869 1.690932
C 0.568601 7.884113 1.692499
C 9.178573 2.918134 1.731411
C 0.557054 5.049101 1.724362
C 0.545539 3.620529 1.725687
C 9.207190 7.177429 1.734289
C 3.014531 0.750374 1.756685
C 1.789338 1.469092 1.720716
C 1.778805 2.896359 1.768193
C 2.989427 5.022840 2.016054
C 1.780818 5.755259 1.788671
C 3.014421 3.587467 1.963561
C 1.802303 7.184959 1.745098
C 5.485091 0.748619 1.837566
C 5.486285 7.867088 1.952700
C 4.228932 2.833178 2.058639
C 4.220161 7.178308 2.033200
C 7.953434 0.766865 1.710712
C 6.710889 1.470271 1.793115
C 7.975943 7.896523 1.761975
C 6.715145 2.895827 1.986796
C 8.001738 5.083500 1.952186
C 7.939582 3.649589 1.895380
C 6.756734 7.195780 1.972263
C 4.129623 5.813537 2.326450
C 5.457987 3.456760 2.333923
N 6.901584 5.843505 2.304923
N 3.026677 7.903158 1.782274
N 4.231697 1.426137 1.842423
N 9.202358 5.754869 1.752578
Zr 5.552645 5.051762 3.680179
