31
Title                                   
C 0.004309 1.808926 5.952379
C 1.236930 2.540294 5.968632
C 1.237652 3.983699 6.004563
C -0.013288 4.679709 6.022113
C -0.000680 10.313810 6.026026
C 1.237671 12.467820 5.978403
C 0.000949 14.627030 5.939436
C 1.237264 15.345864 5.931589
C 1.236856 16.780508 5.926773
C 0.000867 13.191300 5.962532
C 2.469554 1.809103 5.951434
C 3.709175 2.515273 5.965452
C 3.709950 3.947395 5.999009
C 2.470772 0.372380 5.931145
C 3.709808 6.698778 6.058608
C 3.709643 8.190309 6.061911
C 2.489089 4.679223 6.018484
C 2.477154 10.314399 6.026644
C 3.709933 12.475304 5.977368
C 2.473724 14.626991 5.940195
C 3.709454 15.346724 5.932427
C 3.709100 16.785000 5.927665
C 2.474566 13.191051 5.963558
C 3.710319 11.037490 6.009659
C 1.238072 11.036295 6.010659
C 0.003123 0.372408 5.931616
C 2.489690 8.890475 6.051139
C -0.014036 8.889384 6.053169
N 2.535862 6.057578 6.049105
N -0.060185 6.058406 6.058093
Fe 1.239119 7.525221 6.071416
