32
Title                                   
C 0.554184 0.792101 1.740127
C 9.178261 1.503868 1.764538
C 0.560916 7.903248 1.714041
C 9.168362 2.925578 1.771184
C 0.561562 5.047361 1.708813
C 9.203768 5.748620 1.704990
C 0.551993 3.621095 1.783731
C 9.195379 7.181606 1.721027
C 3.016536 0.755850 1.834024
C 1.800235 1.494802 1.798100
C 3.030475 7.888542 1.844569
C 1.804316 2.914165 1.861321
C 3.014614 5.064832 2.090712
C 1.795134 5.742574 1.780856
C 1.795380 7.176721 1.764480
C 5.497012 0.722198 1.964612
C 4.254124 1.443393 1.928790
C 4.293115 2.865947 1.964585
C 4.222895 7.160911 2.140123
C 7.965788 0.763622 1.808945
C 6.721004 1.447814 1.880598
C 7.962702 7.901912 1.805354
C 6.665076 2.872135 1.856055
C 7.944555 5.088177 1.799399
C 6.761163 7.151605 1.950786
C 4.111554 5.819736 2.558844
N 5.479706 3.517774 1.941682
N 6.812593 5.801461 1.978709
N 5.498400 7.849588 2.069949
N 3.049282 3.618428 2.008932
N 7.899566 3.639494 1.779053
Cu 5.564115 4.986032 3.394571
