32
Title                                   
C 0.560604 0.775721 1.690686
C 9.194186 1.477221 1.744839
C 0.551122 7.895001 1.689516
C 9.195816 2.904640 1.832298
C 0.558144 5.038264 1.776019
C 9.193305 5.745708 1.833377
C 0.566664 3.617356 1.797030
C 9.186494 7.170881 1.757758
C 3.019550 0.773690 1.723573
C 1.798015 1.494689 1.726474
C 3.017975 7.908015 1.722260
C 1.811690 2.924660 1.803309
C 3.014329 5.081549 1.955292
C 1.782783 5.761513 1.776520
C 3.053813 3.640888 1.947782
C 1.782990 7.185517 1.717815
C 5.489306 0.731648 1.880231
C 4.261704 1.452874 1.844809
C 4.279909 2.871045 2.031378
C 5.515308 3.482794 2.330913
C 4.225532 7.194033 1.912100
C 7.970354 0.749649 1.760507
C 6.732907 1.432040 1.879758
C 7.949218 7.883368 1.778349
C 6.742743 2.844270 2.075175
C 7.976111 5.044630 2.071779
C 6.794889 5.807499 2.349154
C 7.968643 3.603302 2.021712
C 6.730533 7.166357 1.995381
N 4.158529 5.859595 2.207429
N 5.475898 7.859936 1.934440
Ti 5.374698 5.032835 3.505836
