32
Title                                   
C 0.559829 0.776289 1.649372
C 9.190435 1.478825 1.712262
C 0.549702 7.895490 1.649808
C 9.191522 2.905830 1.806342
C 0.558469 5.037711 1.741747
C 9.195378 5.747422 1.802050
C 0.564033 3.617186 1.764056
C 9.186185 7.171368 1.721174
C 3.020593 0.769576 1.701392
C 1.798092 1.492925 1.691543
C 3.019386 7.904042 1.705482
C 1.811097 2.924361 1.775927
C 3.009710 5.082113 1.970651
C 1.783606 5.761742 1.755099
C 3.049459 3.640188 1.954583
C 1.782623 7.184036 1.690401
C 5.486736 0.730524 1.895495
C 4.259946 1.453674 1.848079
C 4.271644 2.866076 2.054980
C 5.505342 3.469076 2.407636
C 4.222806 7.185680 1.929504
C 7.966971 0.751922 1.741346
C 6.729627 1.434540 1.890264
C 7.945982 7.884278 1.753798
C 6.739373 2.844905 2.105180
C 7.984031 5.047235 2.071533
C 6.816449 5.817668 2.391249
C 7.966074 3.606131 2.026444
C 6.733933 7.168981 1.996537
N 4.142751 5.862509 2.268932
N 5.473581 7.860800 1.954853
Nb 5.418398 5.038089 3.645781
