32
Title                                   
C 0.001707 1.796418 5.631156
C 1.235505 2.514603 5.716660
C 1.235500 3.931809 5.946803
C -0.002029 5.996973 6.464343
C -0.012465 4.630161 6.068410
C -0.019764 10.376745 6.216853
C 1.235558 12.479775 5.806550
C 0.001126 14.628409 5.572270
C 1.235508 15.346387 5.541304
C 1.235507 16.778821 5.524012
C 0.002098 13.199075 5.695687
C 2.469305 1.796348 5.631211
C 3.707541 2.507893 5.695712
C 3.707513 3.917895 5.892718
C 2.470533 0.367172 5.539919
C 2.473092 5.996942 6.464219
C 3.707665 8.177528 6.531451
C 2.483449 4.630128 6.068344
C 2.490886 10.376819 6.216759
C 3.707493 12.496051 5.770226
C 2.469801 14.628375 5.572255
C 3.707539 15.344557 5.535223
C 3.707548 16.778489 5.519327
C 2.469004 13.199134 5.695639
C 3.707586 11.084653 6.006022
C 1.235564 11.066371 6.093165
C 0.000524 0.367196 5.539870
C 2.541577 8.988854 6.615232
C 4.873789 8.988831 6.615663
C 1.235521 6.600475 6.843518
N 3.707506 6.738893 6.532724
W 1.235647 8.315543 7.888055
