32
Title                                   
C 0.555177 0.786611 1.804189
C 9.186094 1.494345 1.821585
C 0.555412 7.903762 1.802362
C 9.172566 2.923401 1.859368
C 0.555252 5.043490 1.828730
C 9.194969 5.760012 1.851570
C 0.555386 3.621361 1.844858
C 9.196010 7.184752 1.826374
C 3.015091 0.764742 1.810200
C 1.794044 1.494008 1.816781
C 3.021401 7.900005 1.818560
C 1.807608 2.923040 1.849666
C 3.029150 5.077353 1.913424
C 1.785284 5.760052 1.836662
C 3.062909 3.633746 1.903143
C 1.784217 7.184558 1.815293
C 5.490575 0.713588 1.865558
C 4.264934 1.437059 1.852458
C 4.290475 2.860073 1.918289
C 4.227416 7.158847 1.897405
C 7.965604 0.764999 1.815647
C 6.715991 1.437322 1.859837
C 7.959646 7.900210 1.828334
C 6.690067 2.860173 1.931216
C 7.951884 5.077391 1.943336
C 7.917873 3.633961 1.924056
C 6.753287 7.159387 1.915756
N 4.202450 5.813174 2.025492
N 5.489800 3.511350 2.027416
N 6.781312 5.815754 2.068723
N 5.491040 7.837402 1.890032
Mo 5.470838 4.975262 3.547180
