32
Title                                   
C 0.550793 0.775227 1.717286
C 9.189129 1.494207 1.708627
C 0.567073 7.890348 1.735123
C 9.169701 2.925433 1.741869
C 0.558530 5.056463 1.779576
C 0.547349 3.628217 1.773609
C 9.214696 7.177859 1.750118
C 3.020253 0.750425 1.811452
C 1.797926 1.474153 1.762272
C 1.794769 2.906533 1.814863
C 3.002339 5.029152 2.098392
C 1.792081 5.765108 1.864469
C 3.034656 3.599746 1.978555
C 1.808609 7.190062 1.814751
C 5.497384 0.730911 1.880571
C 5.489004 7.870249 2.013128
C 4.269614 2.842654 1.967053
C 4.222017 7.179864 2.147072
C 7.960633 0.761867 1.719906
C 6.710406 1.460807 1.783153
C 7.972729 7.892289 1.767649
C 6.694599 2.886122 1.852099
C 7.967866 5.095158 1.857342
C 7.919506 3.644020 1.804935
C 6.753047 7.183543 1.945403
C 4.119726 5.827917 2.509327
N 5.455531 3.480990 2.046557
N 6.840808 5.813149 2.068132
N 3.021510 7.898299 1.861579
N 4.241507 1.425749 1.882947
N 9.209622 5.761595 1.774070
Ir 5.540349 4.993075 3.481613
