32
Title                                   
C 0.553391 0.779842 1.699162
C 9.184984 1.494871 1.749780
C 0.564742 7.893316 1.685382
C 9.171873 2.923332 1.819504
C 0.548592 5.038769 1.745654
C 9.201500 5.759494 1.775390
C 0.553836 3.616078 1.791583
C 9.200368 7.191584 1.724672
C 3.010884 0.746163 1.734745
C 1.793488 1.482947 1.736848
C 3.035896 7.878369 1.758082
C 1.784338 2.902688 1.813485
C 3.007021 5.028025 1.981138
C 1.789351 5.731260 1.763855
C 1.800141 7.160158 1.724546
C 5.483602 0.739736 1.882891
C 4.239760 1.439693 1.840058
C 4.228495 2.857734 2.011334
C 4.244871 7.154600 1.968958
C 7.961329 0.778775 1.756348
C 6.716079 1.461208 1.873585
C 7.965822 7.914395 1.750922
C 6.690531 2.876589 2.042240
C 7.971465 5.083490 1.971214
C 7.924120 3.641935 1.966261
C 6.756135 7.200372 1.935806
C 4.176892 5.770353 2.288069
C 5.431823 3.501304 2.302932
N 6.836305 5.862789 2.232691
N 5.500207 7.855589 1.939191
N 3.012093 3.599965 1.953159
Ti 5.593830 5.045768 3.494012
