32
Title                                   
C 0.558323 0.776293 1.668124
C 9.192157 1.469696 1.714027
C 0.545492 7.897989 1.653499
C 9.199896 2.895210 1.763410
C 0.556076 5.036902 1.687850
C 9.202212 5.745488 1.741141
C 0.566379 3.616708 1.723651
C 9.185212 7.170789 1.711777
C 3.018969 0.785032 1.756845
C 1.792828 1.496240 1.717047
C 2.997796 7.912000 1.763183
C 1.807598 2.927306 1.775268
C 2.987657 5.088426 1.946477
C 1.770809 5.767177 1.719828
C 3.036402 3.646273 1.943152
C 1.769253 7.193808 1.693596
C 5.481678 0.735580 1.918378
C 4.258601 1.475932 1.880747
C 5.465522 7.857311 1.999482
C 4.273463 2.904103 2.037908
C 5.533640 3.505370 2.286583
C 4.190553 7.184668 1.986452
C 7.962212 0.745949 1.769430
C 6.732464 1.439931 1.885301
C 7.952998 7.871552 1.793809
C 6.752392 2.854481 2.031696
C 7.997062 5.026082 1.968232
C 6.839087 5.760602 2.250490
C 7.983799 3.590120 1.935707
C 6.727688 7.153148 2.015725
N 4.102034 5.836483 2.222933
Mn 5.493514 5.044540 3.351752
