32
Title                                   
C 0.550029 0.773038 1.631806
C 9.191217 1.478074 1.675089
C 0.563249 7.896920 1.621534
C 9.186991 2.909487 1.757660
C 0.560960 5.044001 1.680163
C 9.202342 5.750142 1.717686
C 0.561678 3.617329 1.717097
C 9.197634 7.175053 1.665442
C 3.012387 0.755882 1.729791
C 1.790456 1.473580 1.686429
C 1.801240 2.906064 1.759358
C 2.999777 5.054529 2.000340
C 1.795946 5.762101 1.723477
C 3.019580 3.613677 1.962808
C 1.794230 7.188301 1.678175
C 5.488463 0.742296 1.852971
C 4.246432 1.451286 1.843053
C 5.474930 7.883807 1.969917
C 4.254374 2.865925 2.047733
C 4.135726 5.827019 2.345101
C 5.489959 3.502095 2.327122
C 4.206608 7.189977 2.036284
C 7.959909 0.758507 1.699592
C 6.726690 1.459020 1.816278
C 7.960132 7.888044 1.723184
C 6.718898 2.868103 2.029128
C 7.982870 5.050305 1.974645
C 6.819246 5.795637 2.270536
C 7.966813 3.607719 1.951470
C 6.738347 7.172691 1.978302
N 3.009941 7.902302 1.745340
Sc 5.526710 5.048278 3.695990
