32
Title                                   
C 0.555634 0.769928 1.631270
C 9.188172 1.484315 1.644886
C 0.566944 7.895255 1.662609
C 9.186582 2.911273 1.678719
C 0.566893 5.043418 1.656335
C 9.202940 5.750465 1.747906
C 0.561905 3.615611 1.643347
C 9.201549 7.182493 1.723341
C 3.017157 0.756575 1.743548
C 1.799297 1.471954 1.665425
C 1.799329 2.899507 1.683798
C 3.000747 5.029262 1.991982
C 1.804927 5.753231 1.735337
C 3.027665 3.597250 1.913570
C 1.802130 7.187649 1.724191
C 5.478193 0.756414 1.867081
C 5.469007 7.893802 2.005500
C 4.236068 2.834227 2.074148
C 4.209801 7.205674 2.082797
C 7.955428 0.767329 1.704648
C 6.714583 1.474662 1.819012
C 7.960699 7.900117 1.784265
C 6.735269 2.872416 2.025006
C 7.998346 5.048463 1.997003
C 7.955315 3.616652 1.903309
C 6.738628 7.207245 2.046925
C 4.109740 5.825307 2.450197
C 5.480751 3.442923 2.467072
C 6.850809 5.818477 2.408305
N 3.028434 7.906639 1.809510
N 4.236910 1.450387 1.867080
W 5.493912 5.042271 3.555380
