31
Title                                   
C -0.004537 1.786605 5.817132
C 1.232809 2.507882 5.866173
C 1.231715 3.923022 6.016352
C -0.010453 4.634187 6.134304
C -0.010563 10.352774 6.139117
C 1.232296 12.479092 5.871466
C -0.004201 14.627252 5.756246
C 1.232510 15.345373 5.738051
C 1.232511 16.771498 5.736876
C -0.004942 13.200503 5.821414
C 2.469483 1.787528 5.796906
C 3.704266 2.499871 5.841128
C 3.703561 3.925971 5.959624
C 2.468942 0.360277 5.743140
C 3.721046 6.742129 6.255379
C 3.721305 8.244971 6.257032
C 2.469392 4.653466 6.016872
C 2.469214 10.333736 6.022297
C 3.703722 12.487321 5.845837
C 2.468858 14.626928 5.745926
C 3.704325 15.343004 5.732929
C 3.704339 16.773860 5.731573
C 2.468953 13.199488 5.801019
C 3.703425 11.061022 5.964187
C 1.231509 11.064177 6.022079
C -0.004211 0.360041 5.753516
C 2.504494 8.916370 6.099642
C 4.923539 8.961990 6.424932
C 2.504371 6.070841 6.095624
C -0.020855 6.024712 6.421947
Zr 1.339673 7.492256 7.272479
