25
Title                                   
C 7.788350 1.763015 1.908854
C 7.770774 4.289951 1.906067
C 7.788610 6.816661 1.909080
C 1.688217 0.716141 1.909398
C 0.641224 1.762857 1.909040
C 1.688258 7.863303 1.909593
C 1.355441 5.538235 1.907069
C 0.658922 4.289908 1.906523
C 1.355318 3.041401 1.906663
C 0.641413 6.816566 1.909359
C 4.214728 0.733875 1.907113
C 2.966449 1.430426 1.907145
C 4.214737 7.845780 1.907211
C 2.966488 7.149113 1.907352
C 6.741616 0.716311 1.909108
C 5.463043 1.430569 1.906600
C 6.741827 7.863440 1.909224
C 7.074221 5.538355 1.906221
C 7.074092 3.041556 1.906061
C 5.463241 7.149290 1.906586
C 2.783389 2.858387 1.904832
C 2.783529 5.721083 1.905155
C 5.645980 2.858472 1.904089
C 5.646104 5.721351 1.904205
Fe 4.214569 4.289964 1.901554
