25
Title                                   
C 7.759288 1.778821 1.973035
C 7.762750 4.304841 1.922966
C 7.805005 6.836827 1.931311
C 1.667783 0.700121 1.932564
C 0.624848 1.742703 1.931723
C 1.704229 7.834615 1.976145
C 1.363185 5.514948 1.986954
C 0.667308 4.274850 1.924551
C 1.331686 2.999079 1.871061
C 0.670393 6.800920 1.976000
C 4.199404 0.741969 1.922823
C 2.924006 1.407108 1.870834
C 4.229864 7.837511 1.923441
C 2.990011 7.141722 1.986625
C 6.725425 0.745125 1.972340
C 5.439461 1.437941 1.981960
C 6.762049 7.879534 1.930039
C 7.098053 5.580398 1.869666
C 7.066625 3.064780 1.982462
C 5.505726 7.172612 1.868918
C 2.790273 5.714562 2.020788
C 5.639285 2.865284 2.014900
N 2.714933 2.789992 1.758912
N 5.715080 5.789506 1.757238
Mo 4.213871 4.290242 1.386845
