32
Title                                   
C 0.551609 0.787273 1.771883
C 9.176383 1.502895 1.788415
C 0.560402 7.895686 1.756096
C 9.166901 2.923872 1.811848
C 0.555754 5.044593 1.759835
C 9.195787 5.746490 1.754939
C 0.547107 3.616540 1.817332
C 9.194987 7.181535 1.761198
C 3.013319 0.755747 1.820794
C 1.795479 1.488207 1.809688
C 3.032325 7.887900 1.839747
C 1.793944 2.907116 1.861668
C 3.025048 5.040892 2.016285
C 1.790809 5.732708 1.811023
C 1.799544 7.170077 1.797177
C 5.494093 0.736566 1.916244
C 4.251994 1.445264 1.892367
C 4.279011 2.862376 1.961168
C 4.248579 7.167271 2.034943
C 7.963092 0.769562 1.799274
C 6.719020 1.460259 1.859370
C 7.962705 7.906045 1.808339
C 6.669896 2.878281 1.887706
C 7.941092 5.086066 1.837412
C 6.758693 7.168506 1.933318
C 4.173442 5.793014 2.351086
N 5.469510 3.526140 2.030289
N 6.792484 5.807417 2.003646
N 5.502578 7.859681 1.978592
N 3.048146 3.606413 1.960607
N 7.893734 3.641684 1.837081
Cr 5.566297 5.015114 3.444128
