32
Title                                   
C 0.000894 1.795638 5.824374
C 1.235502 2.518287 5.856024
C 1.235462 3.951985 5.946846
C 0.025191 6.069754 6.176367
C -0.009115 4.665019 5.987294
C -0.023383 10.313434 6.047800
C 1.235500 12.445444 5.897180
C 0.002061 14.614515 5.818050
C 1.235527 15.336629 5.807599
C 1.235551 16.771412 5.798980
C 0.002978 13.178977 5.858261
C 2.470109 1.795659 5.824297
C 3.707559 2.516727 5.839179
C 3.707517 3.939291 5.902317
C 2.471433 0.361883 5.799549
C 2.445834 6.069732 6.176276
C 3.707676 8.278308 6.195524
C 2.480129 4.664992 5.987247
C 2.494488 10.313448 6.047811
C 3.707541 12.474848 5.878983
C 2.468957 14.614530 5.818082
C 3.707536 15.333122 5.803620
C 3.707581 16.768948 5.794096
C 2.468053 13.179003 5.858330
C 3.707565 11.045183 5.965547
C 1.235530 11.004711 5.993265
C -0.000465 0.361901 5.799630
N 2.528473 8.935016 6.206758
N 4.886729 8.934948 6.206765
N 1.235540 6.678476 6.403077
N 3.707597 6.834938 6.196344
Ir 1.235782 8.280566 7.735830
