32
Title                                   
C 0.018395 1.788949 5.821182
C 1.256061 2.506473 5.884561
C 1.258815 3.930887 6.043764
C 0.052671 6.028582 6.346020
C 0.016760 4.641497 6.095536
C -0.027529 10.276920 5.890216
C 1.236839 12.446706 5.818105
C 0.012469 14.613464 5.739719
C 1.247443 15.333342 5.739306
C 1.250806 16.768251 5.747881
C 0.011191 13.178755 5.772320
C 2.489851 1.787401 5.825921
C 3.725716 2.510040 5.860364
C 3.727152 3.928677 5.981331
C 2.488072 0.356445 5.763300
C 2.465768 6.043477 6.396745
C 3.718117 8.242105 6.169446
C 2.499310 4.650186 6.125053
C 2.496514 10.327067 6.030589
C 3.715917 12.471627 5.808715
C 2.478730 14.611390 5.752659
C 3.718414 15.330177 5.737196
C 3.722285 16.764101 5.743204
C 2.472306 13.174370 5.795800
C 3.709297 11.048490 5.894693
C 1.237794 10.993032 5.903402
C 0.015258 0.357564 5.759528
C 2.584224 8.964860 6.503901
N 4.869225 8.853540 5.693893
N 1.250920 6.656608 6.659898
N 3.742177 6.790634 6.392352
Y 0.796364 8.671706 7.754700
