32
Title                                   
C 0.552044 0.784008 1.770460
C 9.188977 1.495328 1.787692
C 0.563378 7.896457 1.761810
C 9.176159 2.924777 1.834138
C 0.558359 5.058604 1.785472
C 0.551885 3.626463 1.816181
C 9.208800 7.180162 1.785712
C 3.024005 0.759056 1.802741
C 1.800473 1.488536 1.798899
C 1.805114 2.918659 1.835465
C 3.018381 5.063670 1.933445
C 1.778844 5.767645 1.796069
C 3.063129 3.620357 1.923515
C 1.795277 7.197995 1.779035
C 5.490217 0.722202 1.873270
C 5.477611 7.839838 1.945764
C 4.287982 2.850446 1.959930
C 4.209183 7.150137 1.957370
C 7.959516 0.758747 1.783602
C 6.709618 1.447332 1.832645
C 7.974322 7.886718 1.804398
C 6.692067 2.879485 1.947550
C 7.971427 5.092176 1.957577
C 7.921599 3.640574 1.930037
C 6.756475 7.159254 1.950825
N 4.138488 5.831588 2.120559
N 5.465846 3.462239 2.121060
N 6.850528 5.805029 2.139566
N 3.011481 7.909607 1.801125
N 4.247575 1.420209 1.849424
N 9.205474 5.755679 1.801809
Zn 5.479529 5.018211 3.526357
