32
Title                                   
C 0.550737 0.772498 1.617299
C 9.189806 1.481335 1.648858
C 0.562522 7.897544 1.638621
C 9.187618 2.911072 1.715863
C 0.562427 5.043376 1.678534
C 9.204264 5.751786 1.748314
C 0.561627 3.618231 1.680290
C 9.200820 7.177766 1.696195
C 3.011384 0.753260 1.730472
C 1.790170 1.471481 1.662646
C 1.801424 2.903331 1.713889
C 2.989790 5.044580 2.003613
C 1.794956 5.761971 1.745720
C 3.020215 3.610100 1.932638
C 1.794461 7.188693 1.711781
C 5.489435 0.744473 1.844319
C 4.246421 1.449521 1.842064
C 5.475883 7.884175 1.965988
C 4.240373 2.855598 2.042501
C 4.112352 5.831810 2.404963
C 5.489272 3.463312 2.398525
C 4.205967 7.206654 2.052223
C 7.962281 0.761715 1.693044
C 6.728291 1.459627 1.817526
C 7.962738 7.891881 1.746774
C 6.734604 2.861061 2.037977
C 7.998456 5.044940 2.004545
C 6.850926 5.819372 2.363787
C 7.965070 3.610418 1.939231
C 6.742671 7.192891 2.002542
N 3.009395 7.901478 1.784397
Os 5.497403 5.045241 3.448357
