32
Title                                   
C 0.562725 0.787038 1.776778
C 9.184598 1.504089 1.775158
C 0.573878 7.896799 1.761820
C 9.167424 2.929099 1.752948
C 0.571579 5.044082 1.734311
C 9.207605 5.746655 1.715526
C 0.557517 3.615102 1.780127
C 9.207018 7.179597 1.744500
C 3.029394 0.742075 1.853770
C 1.811397 1.484728 1.821377
C 3.047895 7.872691 1.868594
C 1.811505 2.905530 1.857891
C 3.046679 5.041336 2.078091
C 1.811989 5.732884 1.811798
C 1.810145 7.165877 1.811028
C 5.507475 0.720522 1.914362
C 4.267964 1.434414 1.900348
C 4.314609 2.861831 1.875104
C 4.260584 7.143512 2.113010
C 7.972555 0.766812 1.814650
C 6.724835 1.454399 1.839627
C 7.975164 7.902167 1.806542
C 6.650370 2.886136 1.759097
C 7.928127 5.097260 1.718964
C 6.773209 7.136858 1.862462
C 4.172455 5.785737 2.497938
N 5.470552 3.526423 1.755820
N 6.788139 5.801275 1.783261
N 5.515433 7.841214 2.007536
N 3.063154 3.606449 1.974374
N 7.894203 3.645556 1.719215
Ag 5.253585 5.153042 4.227471
