32
Title                                   
C 0.555171 0.769573 1.632747
C 9.190542 1.477984 1.687283
C 0.555041 7.892089 1.622959
C 9.184517 2.906309 1.766054
C 0.554941 5.035458 1.684282
C 9.197916 5.751203 1.727432
C 0.554948 3.616418 1.726046
C 9.194023 7.178296 1.679427
C 3.016535 0.764265 1.723968
C 1.789052 1.478096 1.686850
C 3.014970 7.890704 1.748837
C 1.794949 2.906480 1.765206
C 2.994569 5.052840 1.979521
C 1.781569 5.751068 1.725985
C 3.012761 3.609449 1.949466
C 1.785462 7.178191 1.678380
C 5.489809 0.744955 1.876580
C 4.249010 1.464261 1.839492
C 5.489809 7.886204 1.991780
C 4.256326 2.875960 2.016199
C 4.155971 5.797890 2.277998
C 5.489699 3.515691 2.291558
C 4.227385 7.179529 2.001085
C 7.963007 0.764192 1.724539
C 6.730684 1.464325 1.840120
C 7.964520 7.890635 1.749972
C 6.723437 2.876004 2.017301
C 7.985306 5.052877 1.982497
C 6.824364 5.798074 2.281442
C 7.966963 3.609386 1.951395
C 6.752252 7.179316 2.002828
Sc 5.488257 5.053467 3.684270
