31
Title                                   
C 0.547675 0.761317 1.584887
C 9.186647 1.484051 1.666797
C 0.562266 7.893339 1.585358
C 9.189544 2.911366 1.639053
C 0.560293 5.038608 1.547185
C 9.209319 5.769365 1.628196
C 0.549625 3.615684 1.547281
C 9.195092 7.191949 1.626377
C 3.010740 0.749644 1.790560
C 1.784394 1.462604 1.625120
C 3.019953 7.873047 1.838435
C 1.770338 2.885181 1.626900
C 2.991593 5.031206 1.938135
C 1.789799 5.743054 1.638198
C 2.992896 3.560221 1.843155
C 1.792670 7.170366 1.666660
C 5.490572 0.774719 2.142641
C 4.212186 1.499392 1.991431
C 5.488778 7.879218 2.143169
C 4.094813 5.758360 2.428375
C 4.221409 7.147521 2.156918
C 7.959344 0.781143 1.838921
C 6.757748 1.506816 2.157225
C 7.968684 7.904617 1.791684
C 6.884242 2.896062 2.429078
C 7.986982 5.094236 1.845467
C 7.987929 3.623173 1.939770
C 6.767411 7.154731 1.993058
N 4.149158 2.860283 1.977512
N 6.830986 5.793912 1.980290
Cd 5.488289 4.326861 3.211462
