32
Title                                   
C 0.544493 0.783917 1.746925
C 9.177161 1.474892 1.778890
C 0.548845 7.903190 1.764378
C 9.170567 2.909195 1.834084
C 0.544874 5.045204 1.751535
C 9.182119 5.748283 1.857170
C 0.559414 3.618127 1.767863
C 9.189167 7.170947 1.837289
C 3.008062 0.763263 1.751978
C 1.787697 1.488012 1.727079
C 1.818243 2.927986 1.714146
C 3.034598 5.090385 1.702044
C 1.779463 5.769690 1.711024
C 3.070033 3.645716 1.689070
C 1.774871 7.196955 1.738434
C 5.475659 0.712500 1.869714
C 4.253851 1.445356 1.771423
C 5.456899 7.851582 1.997051
C 4.318826 2.881197 1.728390
C 4.195831 7.146278 1.850272
C 7.949807 0.740571 1.833034
C 6.713278 1.434277 1.863495
C 7.946512 7.866523 1.888446
C 6.676555 2.859509 1.879267
C 7.953672 5.042976 2.122284
C 6.831342 5.796546 2.536278
C 7.933936 3.604045 1.980029
C 6.718700 7.146528 2.134714
N 4.174242 5.829952 1.775998
N 5.504507 3.526058 1.791053
N 2.992526 7.909754 1.767559
Ag 5.648012 5.081776 4.152583
