32
Title                                   
C 0.013984 1.794797 5.685583
C 1.251449 2.514748 5.750550
C 1.261019 3.936223 5.936761
C 0.055881 6.014310 6.363099
C 0.017225 4.643117 6.031292
C -0.053069 10.347615 6.152000
C 1.212367 12.467169 5.860841
C -0.008628 14.623347 5.659909
C 1.227865 15.343756 5.637617
C 1.237524 16.775650 5.617915
C -0.016608 13.193457 5.758127
C 2.483655 1.794859 5.687271
C 3.723510 2.513579 5.732338
C 3.731620 3.926263 5.883055
C 2.476231 0.365140 5.625648
C 2.486384 6.017363 6.375180
C 3.710725 8.252532 6.482707
C 2.508384 4.641439 6.036295
C 2.458864 10.363518 6.251931
C 3.687043 12.489114 5.828489
C 2.459236 14.622953 5.668541
C 3.700236 15.341130 5.631121
C 3.709704 16.773712 5.611497
C 2.449541 13.194020 5.777456
C 3.675523 11.073851 6.027336
C 1.207395 11.048293 6.092617
C 0.004385 0.365754 5.623952
C 2.536110 8.997209 6.681232
N 4.865899 8.980429 6.343589
N 1.275263 6.593454 6.670779
N 3.745819 6.785916 6.463436
Co 1.162797 8.252608 7.503137
