31
Title                                   
C 0.014658 1.814569 5.877998
C 1.248291 2.542838 5.904296
C 1.252898 3.992968 5.966291
C 0.005419 4.689723 5.964848
C -0.022386 10.294765 6.007451
C 1.224350 12.451279 5.916875
C -0.000851 14.620964 5.864932
C 1.235018 15.342078 5.864786
C 1.239773 16.780318 5.862831
C -0.004381 13.182867 5.883930
C 2.476610 1.812220 5.883852
C 3.717766 2.528555 5.886652
C 3.722162 3.957786 5.928296
C 2.474758 0.373434 5.865875
C 3.738454 6.736127 6.124316
C 3.722104 8.213387 6.152282
C 2.501059 4.703647 6.015196
C 2.462749 10.294096 6.038944
C 3.703128 12.463049 5.894668
C 2.467698 14.617772 5.868530
C 3.706918 15.341738 5.860007
C 3.711717 16.782008 5.858692
C 2.462882 13.178664 5.889933
C 3.697100 11.028547 5.947063
C 1.220113 11.013914 5.995821
C 0.007666 0.374399 5.862194
C 2.496905 8.888763 6.205907
N 4.920661 8.913204 6.101094
N 2.539969 6.071439 6.182366
N -0.022934 6.065587 6.024663
Sc 1.166219 7.487439 7.000609
