32
Title                                   
C 0.553925 0.780523 1.648801
C 9.191641 1.482314 1.679761
C 0.560736 7.902162 1.661117
C 9.190161 2.906550 1.747034
C 0.566366 5.041846 1.680637
C 9.205346 5.747171 1.743231
C 0.568868 3.615777 1.704563
C 9.197167 7.176373 1.701215
C 3.015342 0.759685 1.738656
C 1.796618 1.485043 1.685013
C 1.820740 2.914245 1.725220
C 3.001130 5.072383 1.948239
C 1.793063 5.766258 1.731983
C 3.067719 3.641577 1.892967
C 1.783359 7.194008 1.726090
C 5.487000 0.731304 1.869320
C 4.252175 1.451068 1.841958
C 5.464695 7.864665 1.970643
C 4.272832 2.854886 1.994044
C 4.191383 7.200218 2.022620
C 7.962468 0.759904 1.705821
C 6.724584 1.443018 1.827901
C 7.958760 7.889968 1.744527
C 6.722278 2.845847 2.017174
C 7.993126 5.043659 1.989553
C 6.845664 5.810229 2.324539
C 7.947143 3.606766 1.940686
C 6.740977 7.180963 1.992768
N 4.079531 5.871778 2.370253
N 5.501629 3.434098 2.352043
N 3.005730 7.908893 1.789916
Nb 5.471607 5.028010 3.545208
