31
Title                                   
C -0.019351 1.803265 5.916127
C 1.208352 2.532947 5.931027
C 1.198342 3.971208 5.985691
C -0.033667 4.707980 6.066650
C 0.025849 10.290837 6.048732
C 1.239217 12.452265 5.913592
C 0.001207 14.613523 5.891541
C 1.231167 15.336461 5.887812
C 1.224615 16.776854 5.889414
C 0.007200 13.171013 5.904733
C 2.451267 1.811441 5.895600
C 3.691813 2.529664 5.906089
C 3.683876 3.967830 5.934449
C 2.457695 0.371319 5.885152
C 3.710495 6.764032 6.074201
C 3.728295 8.216675 6.113333
C 2.435479 4.678948 5.921888
C 2.471962 10.323708 5.928208
C 3.716065 12.456972 5.895592
C 2.463832 14.610465 5.881620
C 3.702170 15.331002 5.882505
C 3.695479 16.772048 5.883741
C 2.471521 13.167085 5.886074
C 3.722043 11.032279 5.924691
C -0.013309 0.365054 5.895512
C 2.491501 8.919768 5.999777
C 0.036058 8.890714 6.277508
C 2.491814 6.089218 5.910827
N -0.045509 6.086453 6.293180
N 1.243380 11.037095 5.959632
Mo 1.453558 7.480025 6.916302
