32
Title                                   
C 0.551859 0.781205 1.740894
C 9.190689 1.493836 1.755557
C 0.565433 7.892652 1.747229
C 9.181401 2.920128 1.801923
C 0.558698 5.056131 1.768025
C 0.554374 3.622814 1.787702
C 9.206273 7.182977 1.784130
C 3.021203 0.760163 1.782935
C 1.798600 1.485443 1.769169
C 1.800576 2.915041 1.806270
C 3.000403 5.056678 1.961318
C 1.775787 5.764649 1.795627
C 3.063024 3.615818 1.921584
C 1.791889 7.200233 1.776637
C 5.488892 0.729827 1.863811
C 5.477404 7.846088 1.949220
C 4.265312 2.839427 1.983399
C 4.206660 7.177625 1.987899
C 7.960784 0.758717 1.760696
C 6.712891 1.447029 1.821056
C 7.978484 7.889024 1.803833
C 6.709933 2.869979 1.965643
C 7.991633 5.079912 1.985720
C 7.926832 3.639068 1.926726
C 6.753096 7.178792 1.977787
N 4.106761 5.847455 2.238371
N 5.473053 3.430130 2.231847
N 6.878459 5.822239 2.251362
N 3.015159 7.911212 1.799078
N 4.243228 1.424181 1.849421
N 9.205877 5.749853 1.801437
V 5.479096 5.022864 3.317195
