31
Title                                   
C -0.022204 1.802026 5.941722
C 1.201458 2.535877 5.939973
C 1.183895 3.979036 5.971346
C -0.047842 4.723404 6.072733
C 0.035803 10.277280 6.098004
C 1.252505 12.440755 5.927990
C 0.009676 14.608161 5.917529
C 1.238311 15.332867 5.915481
C 1.228180 16.774227 5.922644
C 0.019331 13.162761 5.924779
C 2.449283 1.814219 5.908304
C 3.690801 2.529793 5.913549
C 3.681530 3.971937 5.911881
C 2.459978 0.371421 5.913554
C 3.665481 6.788459 6.008798
C 3.705470 8.232762 6.075448
C 2.427620 4.667181 5.849183
C 2.503614 10.328551 5.917368
C 3.727614 12.456174 5.911712
C 2.471147 14.605487 5.904223
C 3.708131 15.325239 5.911274
C 3.698164 16.769145 5.917624
C 2.481228 13.159068 5.902871
C 3.741632 11.029739 5.939412
C -0.012092 0.361227 5.931829
C -0.001044 8.873952 6.361973
C 2.466574 6.070227 5.770585
N 2.509309 8.959734 5.933595
N -0.075247 6.121670 6.362739
N 1.259418 11.006323 5.976220
W 1.484691 7.479445 6.746855
