32
Title                                   
C 0.008648 1.782422 5.603459
C 1.247926 2.494658 5.668366
C 1.258060 3.913912 5.858980
C 0.058138 6.024697 6.265532
C 0.021870 4.617674 5.967571
C -0.064446 10.358176 6.249547
C 1.202723 12.482209 5.946422
C -0.016171 14.625329 5.668392
C 1.220896 15.341417 5.614506
C 1.231161 16.767800 5.550726
C -0.025278 13.205678 5.827002
C 2.480805 1.782412 5.604289
C 3.719852 2.494955 5.660667
C 3.730176 3.914295 5.839047
C 2.470698 0.353466 5.547197
C 2.482636 6.020988 6.271224
C 3.748137 6.775964 6.370357
C 3.718220 8.243442 6.475570
C 2.500620 4.616090 5.970197
C 2.442538 10.377122 6.318979
C 3.677563 12.507521 5.923469
C 2.451389 14.625441 5.677091
C 3.692732 15.337030 5.612503
C 3.703057 16.766949 5.548665
C 2.440131 13.205951 5.841964
C 3.667148 11.101433 6.140181
C 1.194022 11.071967 6.177443
C -0.002034 0.353468 5.545675
C 2.549336 9.012556 6.637691
N 4.878963 9.008642 6.384280
N 1.274971 6.630297 6.471675
Ag 1.292843 8.233360 8.212632
