25
Title                                   
C 7.794207 1.755363 1.908933
C 7.770985 4.289951 1.906091
C 7.794229 6.824225 1.909194
C 1.680446 0.710445 1.909509
C 0.635562 1.755281 1.909235
C 1.680349 7.869072 1.909594
C 1.346617 5.544537 1.907026
C 0.658674 4.289909 1.906513
C 1.346488 3.035082 1.906766
C 0.635548 6.824173 1.909402
C 4.214668 0.733541 1.907075
C 2.960039 1.421626 1.907172
C 4.214648 7.846091 1.907181
C 2.960029 7.158121 1.907294
C 6.749350 0.710557 1.909117
C 5.469416 1.421612 1.906576
C 6.749502 7.869147 1.909155
C 7.083022 5.544665 1.906261
C 7.083029 3.035150 1.906052
C 5.469490 7.158092 1.906565
C 2.760556 2.835472 1.905184
C 2.760654 5.744221 1.905295
C 5.669055 2.835427 1.904103
C 5.669019 5.744306 1.904272
Mn 4.214957 4.289945 1.900535
