32
Title                                   
C 0.556457 0.769904 1.668106
C 9.194928 1.480794 1.708868
C 0.567804 7.892199 1.664916
C 9.192829 2.910034 1.777760
C 0.564250 5.048768 1.720427
C 9.204611 5.751752 1.784321
C 0.562005 3.614470 1.740400
C 9.202932 7.176578 1.737078
C 3.019995 0.758254 1.731769
C 1.798929 1.476038 1.707439
C 1.795823 2.900454 1.762378
C 3.011831 5.034700 1.952452
C 1.795798 5.760248 1.733706
C 3.027886 3.600414 1.936313
C 1.798455 7.185765 1.688309
C 5.489156 0.753620 1.854360
C 5.475062 7.896144 1.977755
C 4.246430 2.841956 2.049219
C 4.225230 7.197287 1.996264
C 7.960430 0.761023 1.736331
C 6.717326 1.463794 1.828464
C 7.966156 7.897417 1.791159
C 6.733658 2.874038 2.031279
C 7.986925 5.051717 2.028686
C 7.959402 3.611844 1.968869
C 6.743322 7.197047 2.032299
C 4.150116 5.827458 2.240111
C 5.473640 3.463471 2.326405
C 6.825592 5.810448 2.331551
N 3.021861 7.915979 1.724257
N 4.231312 1.438643 1.827979
Hf 5.433613 5.048934 3.654267
