31
Title                                   
C -0.000334 1.793276 5.877056
C 1.238109 2.511918 5.901684
C 1.237840 3.931255 5.980090
C 0.009763 4.663089 6.019550
C 0.009447 10.324235 6.024326
C 1.237812 12.475205 5.909272
C 0.001124 14.623836 5.865094
C 1.238531 15.343617 5.861788
C 1.238625 16.772511 5.859175
C -0.000416 13.193661 5.884355
C 2.476545 1.793129 5.877782
C 3.709976 2.513158 5.891727
C 3.709349 3.948363 5.959554
C 2.475988 0.362673 5.860923
C 3.708936 6.762388 6.107136
C 3.708928 8.224477 6.107216
C 2.465206 4.664121 6.024071
C 2.465375 10.323405 6.028476
C 3.710134 12.473776 5.898955
C 2.476081 14.624141 5.865570
C 3.710971 15.341770 5.859650
C 3.710913 16.774524 5.857183
C 2.476656 13.193713 5.885144
C 3.709581 11.039130 5.965183
C 1.237581 11.055887 5.985999
C 0.001285 0.362746 5.860475
C 2.495523 8.913024 6.166781
C 4.921597 8.914134 6.157969
C 2.495610 6.073822 6.165571
C -0.022117 6.072984 6.156424
Rh 1.231878 7.494181 6.837022
