32
Title                                   
C 0.548647 0.778642 1.700184
C 9.187492 1.497447 1.704403
C 0.568450 7.892591 1.710707
C 9.166359 2.928469 1.754621
C 0.556893 5.057200 1.766027
C 0.546002 3.630037 1.771369
C 9.213748 7.181450 1.735368
C 3.016202 0.752276 1.787456
C 1.794305 1.478557 1.750098
C 1.793314 2.908294 1.813568
C 2.994989 5.033980 2.083037
C 1.789193 5.763637 1.833131
C 3.034352 3.598411 1.999807
C 1.805122 7.192867 1.779857
C 5.493267 0.726502 1.861634
C 5.487533 7.865657 2.003572
C 4.262759 2.829021 2.036190
C 4.214696 7.183321 2.131499
C 7.961834 0.763239 1.714131
C 6.710453 1.454859 1.784150
C 7.979028 7.896384 1.760260
C 6.693256 2.874560 1.925924
C 7.979455 5.097338 1.943942
C 7.917657 3.646256 1.873369
C 6.762355 7.190966 1.976791
C 4.112771 5.832418 2.459267
N 5.458248 3.424621 2.216661
N 6.881964 5.839758 2.212307
N 3.019546 7.904986 1.828611
N 4.237945 1.418107 1.860508
N 9.211069 5.760959 1.763406
Co 5.534857 5.008381 3.171643
