32
Title                                   
C 0.000925 1.784522 5.589662
C 1.235712 2.499863 5.671322
C 1.235709 3.914942 5.894724
C -0.012256 6.003086 6.369180
C -0.009977 4.610110 6.024546
C -0.011026 10.408645 6.337078
C 1.235318 12.498863 5.872702
C 0.000621 14.630134 5.579396
C 1.235571 15.344274 5.530469
C 1.235672 16.772076 5.491447
C 0.000870 13.209944 5.743828
C 2.470428 1.784451 5.589722
C 3.707723 2.491578 5.661467
C 3.707696 3.902486 5.874318
C 2.471153 0.357720 5.501805
C 2.483637 6.002981 6.369232
C 3.707714 6.749240 6.509206
C 3.707607 8.220124 6.668226
C 2.481406 4.610086 6.024539
C 2.481778 10.408478 6.337354
C 3.707248 12.508715 5.846633
C 2.470359 14.630121 5.579476
C 3.707548 15.342458 5.527006
C 3.707591 16.772518 5.488393
C 2.469625 13.209992 5.743914
C 3.707282 11.107776 6.126457
C 1.235354 11.102736 6.190113
C 0.000152 0.357659 5.501822
C 2.511595 9.029935 6.707037
C 4.903299 9.030073 6.706211
C 1.235682 6.617253 6.635315
V 1.235313 8.134486 7.758701
