31
Title                                   
C 0.543791 0.754563 1.716376
C 9.178909 1.481000 1.747503
C 0.559201 7.885420 1.727800
C 9.199909 2.904793 1.746830
C 0.566045 5.037828 1.713747
C 9.214396 5.771230 1.787342
C 0.554676 3.614931 1.704274
C 9.194962 7.195427 1.789197
C 3.011682 0.745138 1.825287
C 1.773541 1.451706 1.743775
C 3.037853 7.858833 1.816863
C 1.768212 2.875371 1.733216
C 3.021512 5.005317 1.828382
C 1.797064 5.735568 1.738069
C 2.987394 3.558862 1.851020
C 1.800754 7.162500 1.740335
C 5.469439 0.791701 2.015257
C 4.211740 1.499405 1.969297
C 5.490299 7.902868 2.031066
C 4.256313 5.690697 1.964752
C 4.276891 7.129231 1.941176
C 7.936712 0.796054 1.847676
C 6.698850 1.545433 1.964845
C 7.951660 7.908383 1.877359
C 6.755656 2.974738 2.013545
C 8.009181 5.071153 1.945689
C 6.793498 5.759749 2.225901
C 7.994817 3.636059 1.880320
C 6.735990 7.177483 2.047690
N 4.157649 2.872720 2.049228
Tc 5.492775 4.347879 2.835484
