32
Title                                   
C 0.555373 0.792958 1.774279
C 9.179739 1.499474 1.809325
C 0.555505 7.898015 1.755878
C 9.179372 2.917120 1.871501
C 0.554825 5.042934 1.783137
C 9.194913 5.739558 1.809266
C 0.555510 3.616870 1.845684
C 9.190927 7.177987 1.788621
C 3.017501 0.764060 1.765161
C 1.800643 1.499049 1.792317
C 3.024596 7.897036 1.770192
C 1.801455 2.916636 1.848606
C 3.024665 5.065466 1.895813
C 1.784808 5.739110 1.779758
C 1.790201 7.177733 1.761087
C 5.490387 0.732887 1.912758
C 4.258082 1.450740 1.861897
C 4.284683 2.862145 1.971364
C 4.228148 7.158666 1.892048
C 7.963499 0.764825 1.789797
C 6.723212 1.451619 1.880121
C 7.957020 7.897174 1.803088
C 6.696121 2.863376 1.997383
C 7.957577 5.066228 1.954581
C 6.755163 7.159354 1.932180
N 4.171529 5.801520 2.087821
N 5.487832 3.487551 2.246943
N 6.818641 5.807567 2.177178
N 5.491028 7.831135 1.912506
N 3.075506 3.629356 1.899782
N 7.905897 3.630611 1.945497
V 5.459403 5.072430 3.397930
