31
Title                                   
C 0.553350 0.772782 1.837777
C 9.183945 1.485340 1.837114
C 0.559305 7.895143 1.831879
C 9.199999 2.910552 1.863578
C 0.560597 5.040463 1.871122
C 9.212656 5.769398 1.862667
C 0.557896 3.617111 1.876234
C 9.199028 7.190070 1.838892
C 3.025939 0.761803 1.861873
C 1.782576 1.472889 1.864812
C 3.029243 7.877047 1.845490
C 1.779809 2.900370 1.888723
C 3.010083 5.040705 1.892578
C 1.781370 5.750184 1.866647
C 3.009812 3.597690 1.926332
C 1.786346 7.177170 1.842226
C 5.472882 0.763837 1.884364
C 4.242581 1.499072 1.908323
C 5.481406 7.849763 1.877472
C 4.243888 7.121007 1.870981
C 7.944036 0.772908 1.825025
C 6.711204 1.502963 1.851756
C 7.955362 7.891420 1.832450
C 6.742646 2.924209 1.877097
C 7.988360 5.077397 1.880021
C 7.967685 3.630347 1.870423
C 6.739477 7.143007 1.867295
N 4.209443 2.899158 2.001503
N 6.792191 5.760246 1.911134
N 4.208845 5.730603 1.904249
Ti 5.509416 4.317389 2.649265
