32
Title                                   
C 0.560486 0.781334 1.694480
C 9.195271 1.484180 1.742153
C 0.553889 7.900031 1.686591
C 9.188957 2.903610 1.817225
C 0.558967 5.039374 1.749877
C 9.202390 5.751522 1.798116
C 0.564181 3.614655 1.785517
C 9.195747 7.176210 1.752074
C 3.019966 0.771064 1.731927
C 1.794627 1.496767 1.724460
C 3.008290 7.907772 1.744098
C 1.810864 2.919252 1.790514
C 3.014097 5.078105 1.897289
C 1.775879 5.762880 1.746478
C 3.064922 3.639735 1.896808
C 1.776907 7.187693 1.709673
C 5.488990 0.732204 1.876554
C 4.260213 1.457782 1.816542
C 5.482972 7.864915 1.978111
C 4.291077 2.866924 1.939093
C 4.217007 7.185413 1.925907
C 7.967838 0.758254 1.770230
C 6.729670 1.444843 1.851778
C 7.966002 7.891348 1.808173
C 6.719392 2.856150 1.982046
C 7.980305 5.047136 2.027213
C 6.827925 5.800986 2.311797
C 7.949157 3.608759 1.971277
C 6.752579 7.174886 2.036671
N 4.149788 5.828817 2.096695
N 5.503981 3.478829 2.162466
Sc 5.361425 4.999763 3.491665
