32
Title                                   
C 0.551980 0.782284 1.685375
C 9.186204 1.495273 1.707141
C 0.569284 7.902177 1.686345
C 9.170474 2.926928 1.760255
C 0.562115 5.052246 1.721188
C 9.203938 5.762215 1.757075
C 0.552949 3.619544 1.745804
C 9.209017 7.188671 1.732308
C 3.017984 0.753839 1.774859
C 1.796855 1.480006 1.731676
C 1.796723 2.902757 1.785778
C 3.008987 5.040094 2.024147
C 1.797671 5.762125 1.778797
C 3.038613 3.603142 1.964634
C 1.800122 7.189552 1.739167
C 5.493593 0.729380 1.893222
C 5.481182 7.876435 2.030703
C 4.256564 2.834067 2.032532
C 4.215973 7.185377 2.103945
C 7.955444 0.767325 1.729848
C 6.707531 1.457424 1.810231
C 7.971047 7.904011 1.782085
C 6.697248 2.866639 1.955545
C 7.971913 5.083671 1.943374
C 7.909690 3.637926 1.897517
C 6.759945 7.187749 2.006106
C 4.132155 5.827970 2.375198
N 5.459885 3.426792 2.264875
N 6.846274 5.834084 2.235789
N 3.021976 7.912087 1.799155
N 4.232297 1.428729 1.871895
V 5.558130 4.990672 3.386931
