32
Title                                   
C 0.551790 0.778861 1.701567
C 9.193163 1.477378 1.750667
C 0.564182 7.899251 1.698529
C 9.191236 2.908642 1.823421
C 0.560984 5.043371 1.732156
C 9.204591 5.752160 1.825086
C 0.564314 3.616681 1.751819
C 9.200057 7.174382 1.765044
C 3.015932 0.757726 1.763243
C 1.794832 1.480380 1.730846
C 1.805426 2.912287 1.763596
C 3.001883 5.059209 1.879817
C 1.784555 5.769820 1.729830
C 3.036758 3.635039 1.903065
C 1.781910 7.189864 1.719965
C 5.487490 0.738202 1.896618
C 4.249706 1.449085 1.871785
C 5.468120 7.864636 1.942825
C 4.251810 2.862751 2.052327
C 5.488680 3.448118 2.420240
C 4.210629 7.187599 1.916581
C 7.962305 0.756240 1.780534
C 6.726918 1.446848 1.909156
C 7.965512 7.887777 1.807855
C 6.739473 2.857907 2.127826
C 7.997951 5.038717 2.092096
C 6.859276 5.820642 2.400212
C 7.972649 3.603412 2.042011
C 6.742763 7.176689 2.031209
N 4.139811 5.831846 2.077829
N 3.011071 7.904839 1.768248
Ir 5.407986 5.080833 3.397497
