32
Title                                   
C 0.555030 0.788312 1.651360
C 9.181814 1.493704 1.709525
C 0.554941 7.906032 1.647970
C 9.168378 2.922450 1.807434
C 0.555182 5.040446 1.748196
C 9.197320 5.761308 1.780952
C 0.554987 3.620350 1.782144
C 9.195765 7.184360 1.706698
C 3.017365 0.761096 1.710130
C 1.797853 1.493824 1.701656
C 3.022957 7.896209 1.713537
C 1.811251 2.922569 1.799893
C 3.005790 5.074964 1.997224
C 1.782825 5.761548 1.770856
C 3.059780 3.634906 1.973577
C 1.784200 7.184398 1.697205
C 5.489758 0.706667 1.923184
C 4.265181 1.432122 1.869639
C 4.281582 2.839984 2.049665
C 4.219979 7.163503 1.940817
C 7.962425 0.761182 1.719659
C 6.714571 1.432342 1.875619
C 7.957253 7.896268 1.725037
C 6.698123 2.840396 2.055146
C 7.974740 5.075094 2.010702
C 7.920396 3.634702 1.983945
C 6.760207 7.163455 1.949275
N 4.126973 5.859389 2.317629
N 5.488979 3.430435 2.374168
N 6.852829 5.859663 2.328301
N 5.489875 7.835040 1.976883
Tc 5.485456 5.034474 3.415472
