32
Title                                   
C 0.555032 0.766106 1.681356
C 9.189533 1.479131 1.724489
C 0.554967 7.890523 1.678757
C 9.185741 2.907917 1.777484
C 0.555004 5.037463 1.730139
C 9.191227 5.749980 1.765592
C 0.555005 3.616423 1.746211
C 9.185669 7.176049 1.723448
C 3.015134 0.764683 1.766118
C 1.789916 1.479228 1.724832
C 3.026625 7.896803 1.769165
C 1.793815 2.908033 1.777941
C 3.012617 5.048819 1.954726
C 1.788257 5.750098 1.764958
C 3.021079 3.612009 1.935771
C 1.793710 7.176070 1.722605
C 5.489691 0.747622 1.920793
C 4.253848 1.452384 1.896881
C 4.250389 2.871579 2.041977
C 4.198285 5.809325 2.202763
C 5.490043 3.502429 2.297250
C 4.254528 7.191412 1.958159
C 7.964318 0.764522 1.766069
C 6.725626 1.452430 1.896260
C 7.952830 7.896792 1.770343
C 6.729442 2.871420 2.041018
C 7.966968 5.048606 1.955365
C 6.781792 5.809324 2.204636
C 7.958572 3.611868 1.935132
C 6.724847 7.191435 1.959548
N 5.489719 7.891048 1.952922
Mn 5.489535 5.039660 3.270792
