32
Title                                   
C 0.555158 0.768594 1.623613
C 9.190165 1.479536 1.667301
C 0.555054 7.889538 1.633314
C 9.185488 2.905652 1.715546
C 0.554950 5.035395 1.669597
C 9.197671 5.750183 1.732730
C 0.555010 3.616010 1.676106
C 9.194110 7.178315 1.696817
C 3.016337 0.765888 1.733951
C 1.789538 1.479666 1.666568
C 3.013714 7.893628 1.775035
C 1.793962 2.905794 1.714734
C 2.985664 5.042702 1.974037
C 1.781769 5.750122 1.730255
C 3.015182 3.610036 1.927527
C 1.785310 7.178177 1.694641
C 5.490069 0.749071 1.891784
C 4.249202 1.464362 1.862282
C 5.489849 7.886786 2.000884
C 4.243046 2.870176 2.041477
C 4.134966 5.806394 2.333246
C 5.489627 3.485687 2.389165
C 4.228141 7.192823 2.022239
C 7.963395 0.765861 1.735540
C 6.730786 1.464516 1.863351
C 7.965757 7.893709 1.777623
C 6.736609 2.870174 2.042605
C 7.994106 5.042572 1.977648
C 6.844893 5.806379 2.336568
C 7.964382 3.609856 1.929585
C 6.751408 7.192500 2.024449
Tc 5.488443 5.061089 3.453283
