32
Title                                   
C 0.548230 0.770537 1.655340
C 9.186390 1.493338 1.657747
C 0.567183 7.886373 1.678524
C 9.179235 2.921826 1.703248
C 0.556115 5.051700 1.718422
C 0.548364 3.625171 1.707872
C 9.208425 7.176771 1.711788
C 3.014996 0.751589 1.761581
C 1.792840 1.471752 1.710851
C 1.786704 2.903390 1.764458
C 2.982478 5.026701 2.077066
C 1.781508 5.757545 1.815959
C 3.016450 3.592242 2.000192
C 1.802647 7.187854 1.758393
C 5.486537 0.743096 1.830735
C 5.484272 7.865579 1.951988
C 4.234379 2.828686 2.104995
C 4.214553 7.185910 2.080953
C 7.956395 0.763857 1.679157
C 6.710345 1.469168 1.773396
C 7.971008 7.894450 1.735706
C 6.722005 2.886913 1.979494
C 7.995313 5.084962 1.949249
C 7.943306 3.645082 1.878382
C 6.754151 7.193075 1.951554
C 4.111207 5.827600 2.446106
C 5.476111 3.441050 2.399887
N 6.893807 5.839337 2.284582
N 3.022667 7.900486 1.807251
N 4.234089 1.426619 1.864140
N 9.200935 5.758708 1.739551
Mo 5.551119 5.039821 3.534933
