32
Title                                   
C -0.000749 1.783471 5.932298
C 1.235362 2.498867 5.996897
C 1.235482 3.916101 6.154345
C 0.023692 6.025931 6.419078
C -0.002861 4.634016 6.204360
C -0.023501 10.311043 5.774766
C 1.235576 12.464103 5.814085
C 0.002108 14.621338 5.808869
C 1.235606 15.340210 5.820809
C 1.235426 16.770131 5.847301
C 0.004617 13.190495 5.798630
C 2.471488 1.783447 5.932299
C 3.707458 2.503923 5.967633
C 3.707578 3.920739 6.080105
C 2.471705 0.357157 5.864513
C 2.447305 6.025856 6.418821
C 3.707431 8.138166 5.917123
C 2.473796 4.633819 6.204195
C 2.494454 10.311206 5.773797
C 3.707543 12.481658 5.771757
C 2.469044 14.621336 5.808794
C 3.707570 15.337987 5.812092
C 3.707489 16.766905 5.838891
C 2.466359 13.190574 5.798443
C 3.707581 11.065068 5.745609
C 1.235427 11.017450 5.809639
C -0.000870 0.357204 5.864508
C 2.534921 8.881715 5.868986
C 4.880263 8.881946 5.871684
N 1.235567 6.670277 6.703212
N 3.707393 6.758690 6.362863
Zr 1.237072 8.786492 7.464896
