32
Title                                   
C 0.546372 0.769449 1.667805
C 9.184275 1.494126 1.687177
C 0.563900 7.885766 1.656923
C 9.179038 2.917797 1.741880
C 0.556530 5.050454 1.712267
C 0.545803 3.621512 1.739406
C 9.205041 7.177620 1.670571
C 3.014290 0.748938 1.767810
C 1.788715 1.472718 1.737457
C 1.782143 2.899879 1.807325
C 2.985134 5.029721 2.076091
C 1.779943 5.753895 1.794195
C 3.013487 3.590310 2.028725
C 1.799809 7.184993 1.730055
C 5.481968 0.743262 1.847308
C 5.480188 7.861413 1.954433
C 4.237856 2.838264 2.111272
C 4.210204 7.172707 2.078152
C 7.951145 0.763844 1.693914
C 6.707656 1.463972 1.792463
C 7.972324 7.894592 1.708417
C 6.708486 2.891281 2.001069
C 7.988300 5.084578 1.889029
C 7.938801 3.645916 1.895126
C 6.751034 7.184348 1.911548
C 4.120994 5.821713 2.391316
C 5.463402 3.462230 2.346667
N 6.873653 5.823594 2.148278
N 3.012904 7.904070 1.783560
N 4.232725 1.418080 1.863175
N 9.204609 5.755515 1.685496
Y 5.653034 5.084633 3.794591
