32
Title                                   
C 0.550715 0.786604 1.749162
C 9.176056 1.501744 1.778202
C 0.557631 7.895902 1.738470
C 9.166413 2.923622 1.803879
C 0.555314 5.046152 1.743481
C 9.193512 5.747207 1.763623
C 0.549077 3.617726 1.799214
C 9.193723 7.182193 1.760084
C 3.015271 0.757320 1.791748
C 1.795310 1.486336 1.777405
C 3.034955 7.887230 1.821525
C 1.791577 2.904544 1.833577
C 3.025015 5.040444 1.990251
C 1.792559 5.735788 1.790273
C 1.799289 7.171466 1.774784
C 5.494390 0.738561 1.933953
C 4.253337 1.448834 1.880918
C 4.269690 2.864496 1.952647
C 4.246865 7.168404 2.025484
C 7.961000 0.767764 1.799919
C 6.721345 1.466988 1.887162
C 7.957755 7.904895 1.806627
C 6.684043 2.876151 1.927125
C 7.948234 5.077755 1.877596
C 6.749211 7.177305 1.956409
C 4.168127 5.793889 2.376136
N 5.468077 3.522953 2.089431
N 6.802367 5.812794 2.109677
N 5.506979 7.865841 1.995116
N 3.046122 3.601912 1.931424
N 7.903145 3.642114 1.841458
Ru 5.556658 4.996253 3.406741
