25
Title                                   
C 7.774678 1.757797 1.908972
C 7.745230 4.300559 1.906226
C 7.780479 6.831251 1.909650
C 1.682279 0.716842 1.909756
C 0.641772 1.757137 1.909524
C 1.683075 7.849639 1.909569
C 1.326443 5.564492 1.906810
C 0.647516 4.294481 1.906824
C 1.319164 3.029547 1.908101
C 0.657278 6.819949 1.909393
C 4.218938 0.722853 1.907363
C 2.954354 1.394808 1.908264
C 4.225279 7.820454 1.907097
C 2.947475 7.159228 1.907013
C 6.744805 0.732171 1.909324
C 5.489174 1.401140 1.906506
C 6.756357 7.855508 1.909604
C 7.093551 5.576423 1.906806
C 7.084444 3.022310 1.905718
C 5.501235 7.168937 1.906828
C 2.747322 2.823158 1.907362
N 2.734222 5.768953 1.903680
N 5.694231 2.808514 1.902840
N 5.710712 5.786234 1.903770
Ta 4.210527 4.283628 1.897100
