32
Title                                   
C 0.006196 1.787335 5.870924
C 1.242615 2.506337 5.923161
C 1.241354 3.929153 6.050079
C 0.020621 6.032603 6.282987
C -0.001568 4.641001 6.084457
C -0.007710 10.275935 5.882820
C 1.247652 12.449866 5.850042
C 0.015196 14.614528 5.798769
C 1.248764 15.334068 5.803325
C 1.245996 16.766594 5.814488
C 0.020116 13.182862 5.815497
C 2.477998 1.785890 5.875641
C 3.711795 2.507859 5.898142
C 3.707537 3.930341 5.989262
C 2.481250 0.355263 5.827491
C 2.450758 6.059938 6.312987
C 3.752962 8.227283 6.195370
C 2.477204 4.653307 6.106613
C 2.515448 10.340730 6.042781
C 3.728527 12.472990 5.852144
C 2.482613 14.611402 5.812275
C 3.719589 15.330935 5.800911
C 3.717745 16.764054 5.809195
C 2.482798 13.175554 5.843826
C 3.727794 11.051188 5.919631
C 1.253221 11.000182 5.906365
C 0.008719 0.357057 5.823560
C 2.607287 8.969908 6.481582
N 4.879590 8.857361 5.550952
N 1.223900 6.687282 6.580074
N 3.715983 6.775963 6.275352
Mo 0.855383 8.612553 7.370596
