32
Title                                   
C 0.549705 0.782049 1.740253
C 9.175602 1.495371 1.782091
C 0.556060 7.890282 1.695317
C 9.174528 2.916592 1.852321
C 0.552718 5.037541 1.758498
C 9.198515 5.739523 1.731676
C 0.547817 3.610095 1.842794
C 9.193313 7.176221 1.703034
C 3.010477 0.756995 1.771018
C 1.791439 1.482981 1.797824
C 3.026089 7.888478 1.754482
C 1.784159 2.902395 1.886364
C 3.009041 5.032884 1.988038
C 1.781192 5.727839 1.772185
C 1.795129 7.165453 1.724208
C 5.489683 0.745698 1.886871
C 4.247562 1.447054 1.879978
C 4.254580 2.865639 2.069524
C 4.237807 7.159123 1.928404
C 7.960563 0.766559 1.756218
C 6.721918 1.462772 1.857302
C 7.960944 7.902172 1.738489
C 6.695415 2.878525 2.024209
C 7.960987 5.065032 1.872689
C 6.757112 7.169095 1.874129
C 4.175600 5.777197 2.214433
C 5.474034 3.521396 2.328969
N 6.817815 5.800362 2.040031
N 5.498271 7.844583 1.903225
N 3.020141 3.598397 2.017005
N 7.925023 3.633058 1.940800
Sc 5.590521 5.169829 3.581120
