32
Title                                   
C -0.000442 1.790551 5.833246
C 1.235622 2.505268 5.920560
C 1.235734 3.917321 6.128781
C 0.017148 6.009795 6.492614
C -0.005354 4.629460 6.214072
C -0.017546 10.332778 5.925925
C 1.235573 12.473967 5.752291
C 0.001235 14.628612 5.659339
C 1.235442 15.347681 5.662555
C 1.235435 16.778143 5.693923
C 0.002699 13.197007 5.695440
C 2.471683 1.790469 5.833305
C 3.707648 2.507471 5.896428
C 3.707764 3.919357 6.067077
C 2.471887 0.365087 5.724791
C 2.453843 6.009741 6.492769
C 3.707586 8.180465 6.146624
C 2.476717 4.629399 6.214346
C 2.488360 10.332648 5.926290
C 3.707441 12.486917 5.711671
C 2.469809 14.628771 5.659268
C 3.707611 15.345135 5.654073
C 3.707577 16.776048 5.685934
C 2.468259 13.197272 5.695438
C 3.707394 11.065441 5.805265
C 1.235481 11.040923 5.884417
C -0.000945 0.365185 5.724814
C 2.523006 8.914052 6.159672
C 4.892204 8.914075 6.158648
N 1.235443 6.631766 6.778998
N 3.707515 6.759182 6.528494
Hf 1.235504 8.577337 7.724231
