31
Title                                   
C 0.011363 1.820578 5.915636
C 1.252351 2.546610 5.946314
C 1.263532 4.002627 5.985465
C 0.006881 4.669503 5.908433
C -0.016566 10.322478 5.925884
C 1.228636 12.438390 5.941073
C 0.002431 14.607299 5.902795
C 1.233719 15.334171 5.907032
C 1.237855 16.777528 5.909438
C -0.002478 13.158755 5.913601
C 2.477979 1.810822 5.940168
C 3.712437 2.529624 5.930498
C 3.712110 3.971087 5.958848
C 2.475075 0.367114 5.919883
C 3.771333 6.754597 6.040842
C 3.753193 8.227677 6.044617
C 2.502708 4.721996 6.089651
C 2.459837 10.278439 6.083753
C 3.697099 12.458496 5.928680
C 2.463486 14.610084 5.914944
C 3.707296 15.327658 5.904664
C 3.711771 16.774815 5.906750
C 2.459377 13.162193 5.933854
C 3.685868 11.029367 5.961381
C 0.005685 0.373897 5.905903
C 2.511770 8.861707 6.347399
N 4.916399 8.956653 5.864362
N 2.573848 6.123153 6.399820
N -0.036358 6.043130 5.794677
N 1.228608 11.000944 5.979542
Re 1.079252 7.496755 6.595293
