32
Title                                   
C 0.550890 0.784827 1.748058
C 9.188774 1.496264 1.761660
C 0.562802 7.897538 1.745110
C 9.174957 2.925493 1.815621
C 0.558544 5.058138 1.774011
C 0.551734 3.626677 1.798942
C 9.209193 7.180415 1.772633
C 3.020896 0.758510 1.793810
C 1.799636 1.489197 1.781500
C 1.805050 2.918996 1.820112
C 3.010571 5.064358 1.957184
C 1.776547 5.767524 1.795535
C 3.062349 3.619080 1.929834
C 1.793727 7.198309 1.775437
C 5.488886 0.719173 1.865364
C 5.477368 7.837927 1.952686
C 4.285377 2.843984 1.994239
C 4.203535 7.155297 1.995886
C 7.960423 0.758996 1.758611
C 6.711063 1.443568 1.822100
C 7.976509 7.888213 1.790102
C 6.694663 2.872031 1.967961
C 7.979528 5.093917 1.991493
C 7.922527 3.639774 1.936868
C 6.762102 7.165100 1.972351
N 4.115223 5.840659 2.183556
N 5.468331 3.436598 2.183333
N 6.875790 5.820743 2.209294
N 3.008874 7.910923 1.805998
N 4.245715 1.415624 1.850247
N 9.208447 5.755934 1.797510
Cu 5.483733 5.027403 3.366454
