25
Title                                   
C 7.773295 1.753479 1.969680
C 7.721281 4.290014 1.935925
C 7.773411 6.825999 1.970063
C 1.681790 0.716699 1.966203
C 0.645013 1.766206 1.965216
C 1.681784 7.862810 1.966368
C 1.317328 5.544800 1.928463
C 0.625001 4.290079 1.928941
C 1.317095 3.035061 1.928367
C 0.645090 6.813326 1.965398
C 4.234037 0.737548 1.938095
C 2.975536 1.425915 1.928198
C 4.234167 7.842118 1.938120
C 2.975587 7.153768 1.928658
C 6.755295 0.728805 1.977605
C 5.494297 1.412590 1.948091
C 6.755397 7.850779 1.977688
C 7.066275 5.563645 1.939211
C 7.066317 3.016132 1.938931
C 5.494390 7.167124 1.947778
C 2.762179 2.832961 1.866857
C 2.762396 5.746687 1.867541
N 5.686488 2.801263 1.904130
N 5.686430 5.778349 1.904063
Zr 4.240657 4.289854 1.144510
