32
Title                                   
C 0.551187 0.782550 1.777862
C 9.188939 1.493069 1.782186
C 0.562951 7.895662 1.780444
C 9.176662 2.923408 1.818162
C 0.558052 5.057645 1.797907
C 0.551576 3.626510 1.812725
C 9.207608 7.179652 1.800168
C 3.023631 0.758481 1.814200
C 1.799882 1.487073 1.804248
C 1.804394 2.917944 1.831702
C 3.015570 5.060759 1.945976
C 1.779045 5.767792 1.826804
C 3.059885 3.619085 1.914686
C 1.794094 7.197574 1.810730
C 5.488904 0.724002 1.861181
C 5.476109 7.842577 1.924099
C 4.285022 2.852892 1.954351
C 4.211773 7.151777 1.966834
C 7.958530 0.758683 1.780388
C 6.708920 1.448303 1.823192
C 7.972473 7.886532 1.811183
C 6.694791 2.880244 1.923807
C 7.971064 5.088608 1.942052
C 7.924296 3.637756 1.898664
C 6.752679 7.161776 1.934872
N 4.138649 5.828026 2.134087
N 5.470422 3.467143 2.096474
N 6.843939 5.803101 2.102587
N 3.012464 7.907526 1.830069
N 4.246905 1.422561 1.858546
N 9.204989 5.756712 1.819730
Rh 5.498358 5.025765 3.533586
