31
Title                                   
C -0.008782 1.809685 5.954005
C 1.223907 2.541761 5.974719
C 1.222464 3.979148 6.012601
C -0.020201 4.702628 5.996419
C 0.022870 10.310961 5.926602
C 1.246349 12.437757 5.943082
C 0.006550 14.607184 5.921430
C 1.236351 15.335344 5.927259
C 1.232354 16.775628 5.933972
C 0.008854 13.161905 5.922324
C 2.462580 1.811501 5.965781
C 3.699147 2.530670 5.972315
C 3.690466 3.972569 6.006434
C 2.466771 0.369940 5.943869
C 3.733613 6.752182 6.051621
C 3.755085 8.227049 6.029798
C 2.457096 4.706507 6.067351
C 2.479096 10.282433 6.033992
C 3.713273 12.454688 5.933912
C 2.469523 14.609339 5.930639
C 3.708890 15.328217 5.926227
C 3.704376 16.773269 5.933735
C 2.475983 13.166290 5.941130
C 3.716850 11.026532 5.952106
C -0.004666 0.368629 5.937151
C 2.492147 8.867928 6.178237
C 0.031219 8.907463 5.901490
C 2.504995 6.128275 6.185440
N -0.030466 6.079368 5.969286
N 1.252058 11.031809 5.969344
Co 1.193664 7.501487 6.358930
