25
Title                                   
C 7.785767 1.772506 1.908310
C 7.742174 4.298920 1.905831
C 7.786988 6.829990 1.908689
C 1.696473 0.716564 1.908915
C 0.641515 1.771026 1.908294
C 1.697948 7.860776 1.909245
C 1.338139 5.540554 1.907172
C 0.638084 4.298730 1.906233
C 1.348970 3.051811 1.906739
C 0.648217 6.816092 1.908910
C 4.223449 0.713188 1.907078
C 2.976754 1.424310 1.907514
C 4.223819 7.817177 1.906882
C 2.974511 7.131427 1.907661
C 6.740931 0.722918 1.908747
C 5.465252 1.413185 1.906884
C 6.755208 7.861815 1.908765
C 7.066383 5.566394 1.905786
C 7.056364 3.049374 1.906339
C 5.491408 7.141214 1.906018
C 2.784506 2.859736 1.906024
C 2.770917 5.706867 1.906174
C 5.631614 2.845892 1.905265
N 5.689046 5.764014 1.903239
Fe 4.196103 4.271533 1.903386
