31
Title                                   
C -0.020037 1.786514 5.951442
C 1.209257 2.513012 5.955427
C 1.199896 3.937561 5.980519
C -0.049394 4.648791 6.027487
C 0.026583 10.352436 5.995359
C 1.255151 12.486139 5.957562
C 0.004722 14.633344 5.938859
C 1.237918 15.348953 5.941404
C 1.227801 16.773777 5.941766
C 0.014743 13.206109 5.941488
C 2.449754 1.789340 5.938734
C 3.685855 2.493536 5.944546
C 3.672414 3.919782 5.961494
C 2.459907 0.361603 5.938512
C 3.723135 6.719849 6.007893
C 3.754215 8.212052 6.012836
C 2.439835 4.647035 5.948582
C 2.508747 10.339505 6.043638
C 3.725992 12.497350 5.950165
C 2.477585 14.633558 5.941906
C 3.710261 15.347389 5.939049
C 3.699783 16.777435 5.939112
C 2.488140 13.207487 5.949042
C 3.734299 11.070472 5.988129
C 1.265365 11.064015 5.999253
C -0.010539 0.359932 5.943654
C 2.557004 8.931779 6.137751
C 4.931648 8.946361 6.026267
C 2.522131 6.048062 5.939266
N -0.080528 6.006329 6.132869
Pd 1.264853 7.498639 6.387190
