31
Title                                   
C 0.547630 0.771965 1.669316
C 9.180371 1.475534 1.698603
C 0.556968 7.897034 1.662050
C 9.208232 2.906952 1.660298
C 0.560945 5.037346 1.572332
C 9.216867 5.771022 1.664010
C 0.562663 3.619003 1.579926
C 9.199196 7.193087 1.709028
C 3.022661 0.776252 1.872755
C 1.781207 1.470857 1.726380
C 3.028081 7.880621 1.843057
C 1.779660 2.897525 1.687314
C 2.973747 5.045830 1.856156
C 1.778515 5.755710 1.654367
C 2.971297 3.599039 1.901253
C 1.789645 7.186615 1.693227
C 5.480277 0.767461 2.134540
C 4.220700 1.511916 2.099170
C 5.485513 7.842988 2.123423
C 4.226534 7.123036 2.027702
C 7.936688 0.773311 1.848980
C 6.721998 1.505014 2.048810
C 7.951968 7.878419 1.860048
C 6.799074 2.956528 2.157700
C 8.034766 5.067062 1.887296
C 8.022124 3.631642 1.854158
C 6.758280 7.122821 2.080139
N 4.145540 2.921369 2.253710
N 6.856951 5.725944 2.228177
N 4.147893 5.729803 2.097266
Os 5.495382 4.300338 2.668108
