32
Title                                   
C 0.553667 0.785401 1.651678
C 9.192339 1.481674 1.682417
C 0.563510 7.904389 1.655611
C 9.184779 2.909557 1.762939
C 0.565153 5.045434 1.694309
C 9.205310 5.753164 1.760380
C 0.567654 3.617009 1.726231
C 9.200206 7.178549 1.704330
C 3.014381 0.760133 1.741535
C 1.797354 1.485506 1.698202
C 1.817514 2.917109 1.753155
C 2.996376 5.072733 1.959668
C 1.786375 5.771885 1.734357
C 3.059801 3.641123 1.918993
C 1.780928 7.196715 1.717250
C 5.485201 0.724934 1.864589
C 4.251641 1.444227 1.837433
C 5.466706 7.861829 1.973935
C 4.273866 2.850289 1.998437
C 4.195830 7.197052 2.017808
C 7.962776 0.758399 1.705253
C 6.723240 1.438657 1.820793
C 7.963137 7.889017 1.754652
C 6.719697 2.845011 2.007963
C 7.998604 5.046793 2.023749
C 6.862535 5.820929 2.379009
C 7.950731 3.606458 1.953575
C 6.749901 7.183562 2.017966
N 4.076640 5.871102 2.334897
N 5.499061 3.424959 2.308095
N 3.006631 7.908442 1.778664
Os 5.462218 5.019149 3.375627
