32
Title                                   
C 0.554964 0.786000 1.763861
C 9.183258 1.494328 1.791738
C 0.555254 7.905854 1.755711
C 9.167930 2.925667 1.844386
C 0.554825 5.042556 1.803750
C 9.192576 5.760166 1.817986
C 0.554923 3.623940 1.825151
C 9.194326 7.184747 1.780772
C 3.016323 0.765199 1.784273
C 1.796400 1.493756 1.790366
C 3.021394 7.898147 1.785055
C 1.811356 2.925244 1.840997
C 3.028928 5.077480 1.926170
C 1.786911 5.760017 1.812451
C 3.062668 3.633127 1.934129
C 1.785444 7.184757 1.777442
C 5.489942 0.707129 1.885011
C 4.267663 1.436519 1.866940
C 4.292024 2.856724 1.999959
C 4.225744 7.151851 1.891552
C 7.964011 0.765494 1.785640
C 6.712596 1.436554 1.871945
C 7.959180 7.898539 1.788216
C 6.687506 2.856662 2.006489
C 7.951311 5.077850 1.939727
C 7.917144 3.633252 1.944171
C 6.754928 7.152364 1.900021
N 4.193896 5.816690 2.058450
N 5.489164 3.479643 2.229378
N 6.788185 5.818736 2.079749
N 5.490159 7.834599 1.896445
Ir 5.482827 5.027600 3.535566
