31
Title                                   
C -0.000135 1.812796 5.926218
C 1.230797 2.549249 5.936774
C 1.227275 4.006449 5.985676
C -0.017534 4.723756 6.059920
C -0.017958 10.284017 6.056001
C 1.228510 12.426710 5.936262
C 0.000715 14.603764 5.920828
C 1.231991 15.328824 5.913998
C 1.232706 16.774509 5.910830
C 0.000120 13.152464 5.932961
C 2.466844 1.817933 5.906948
C 3.708732 2.532250 5.911553
C 3.711187 3.972564 5.927178
C 2.467388 0.370596 5.903829
C 3.701310 6.785037 6.003508
C 3.693764 8.230764 6.000947
C 2.482526 4.698708 5.916178
C 2.474104 10.301182 5.907378
C 3.704459 12.453966 5.926043
C 2.461367 14.601193 5.912242
C 3.702543 15.321614 5.911751
C 3.703303 16.770841 5.906815
C 2.460688 13.148786 5.918523
C 3.703013 11.025686 5.950588
C -0.002927 0.366380 5.914744
N 2.502206 8.923667 5.763744
N 4.878824 8.914099 6.355582
N 2.515631 6.072958 5.837282
N -0.063347 6.099714 6.312250
N 1.221732 10.969377 5.957908
Zr 1.476664 7.518297 6.976741
