32
Title                                   
C 0.556601 0.779252 1.691735
C 9.188851 1.481100 1.730243
C 0.550412 7.900518 1.695880
C 9.182068 2.904310 1.794259
C 0.554699 5.036858 1.734442
C 9.198846 5.751799 1.810275
C 0.560076 3.616075 1.758207
C 9.192923 7.177948 1.770856
C 3.015805 0.773197 1.737419
C 1.791647 1.492794 1.715897
C 3.004181 7.903259 1.766730
C 1.808239 2.920868 1.764142
C 3.007081 5.076460 1.892797
C 1.776181 5.761775 1.746382
C 3.056472 3.635029 1.869183
C 1.775274 7.189285 1.722383
C 5.484414 0.728900 1.882502
C 4.257455 1.457916 1.819633
C 5.477546 7.864833 1.984884
C 4.283551 2.869108 1.926954
C 4.212738 7.184393 1.945495
C 7.964132 0.759101 1.774694
C 6.725288 1.444152 1.860825
C 7.964158 7.888312 1.832373
C 6.718116 2.853296 1.979918
C 7.985801 5.041538 2.049896
C 6.861015 5.819027 2.406443
C 7.948033 3.604022 1.958740
C 6.747271 7.184034 2.070251
N 4.144544 5.824194 2.098919
N 5.500764 3.478046 2.134973
Ir 5.439584 5.009792 3.386168
