31
Title                                   
C 0.555106 0.761119 1.783880
C 9.189652 1.470601 1.805829
C 0.554977 7.893189 1.783875
C 9.198903 2.895060 1.797292
C 0.554876 5.040309 1.768595
C 9.198725 5.759139 1.797257
C 0.554856 3.614061 1.768566
C 9.189510 7.183580 1.805950
C 3.026835 0.769389 1.869875
C 1.789944 1.470763 1.807379
C 3.026915 7.884969 1.869902
C 1.780384 2.895185 1.798915
C 3.003846 5.049699 1.876958
C 1.780541 5.759159 1.798723
C 3.003686 3.604635 1.877051
C 1.789976 7.183600 1.807328
C 5.489638 0.761252 1.975913
C 4.256791 1.505676 1.952385
C 5.489595 7.892776 1.976023
C 4.229500 2.920104 2.001679
C 4.229385 5.734789 2.001699
C 4.256762 7.148814 1.952654
C 7.952730 0.769311 1.867780
C 6.722462 1.505380 1.950679
C 7.952483 7.884869 1.867994
C 6.749822 2.919843 1.999256
C 7.975377 5.049640 1.874080
C 6.749905 5.734741 1.999337
C 7.975520 3.604535 1.874203
C 6.722439 7.148816 1.951100
Fe 5.490233 4.327042 2.557144
