32
Title                                   
C 0.557870 0.784215 1.635394
C 9.189963 1.491577 1.655936
C 0.571490 7.903848 1.624562
C 9.177040 2.923011 1.713085
C 0.571301 5.050527 1.668791
C 9.215178 5.759241 1.681637
C 0.561961 3.619063 1.719367
C 9.211823 7.183946 1.663390
C 3.020213 0.755003 1.777836
C 1.802545 1.486043 1.715641
C 1.808811 2.909384 1.805282
C 2.982664 5.058162 2.159819
C 1.798071 5.766705 1.775149
C 3.041582 3.612102 2.057575
C 1.799652 7.192883 1.708547
C 5.496306 0.713519 1.922638
C 5.477816 7.865897 2.109228
C 4.269788 2.832937 2.084740
C 4.186482 7.202451 2.243459
C 7.958140 0.758317 1.686129
C 6.710552 1.440817 1.784187
C 7.971482 7.896036 1.738793
C 6.700775 2.853749 1.921849
C 7.985914 5.079770 1.892465
C 7.916997 3.630415 1.845979
C 6.771786 7.172336 2.020709
C 4.028618 5.888341 2.629300
N 5.478607 3.411267 2.233498
N 6.881070 5.824301 2.209363
N 3.016985 7.917156 1.798252
N 4.232137 1.421600 1.905373
Zn 5.540144 5.006572 3.325526
