32
Title                                   
C 0.001837 1.794469 5.688504
C 1.235655 2.511622 5.770039
C 1.235669 3.928684 5.980115
C 0.000300 6.011704 6.438348
C -0.008727 4.632076 6.088040
C -0.020125 10.363929 6.160042
C 1.235490 12.477380 5.811313
C 0.001250 14.628838 5.613811
C 1.235575 15.346533 5.589142
C 1.235611 16.777815 5.581413
C 0.001882 13.199115 5.717604
C 2.469649 1.794528 5.688591
C 3.707789 2.506856 5.747838
C 3.707703 3.920776 5.929538
C 2.470721 0.365787 5.599395
C 2.470811 6.011837 6.438483
C 3.707274 8.168104 6.387903
C 2.480085 4.631923 6.088210
C 2.490637 10.363920 6.160595
C 3.707577 12.497074 5.781215
C 2.469848 14.628841 5.613785
C 3.707719 15.344251 5.582999
C 3.707662 16.778258 5.576874
C 2.469114 13.198966 5.717658
C 3.707379 11.080189 5.981317
C 1.235439 11.057310 6.056469
C 0.000672 0.365947 5.599324
C 2.545278 8.965238 6.514433
C 4.869312 8.965355 6.513563
C 1.235486 6.636049 6.812223
N 3.707587 6.737744 6.476073
Tc 1.235173 8.356204 7.746441
