32
Title                                   
C 0.551630 0.776730 1.693544
C 9.188925 1.494707 1.696753
C 0.567196 7.890059 1.702314
C 9.174711 2.922029 1.734156
C 0.559167 5.056078 1.741904
C 0.549646 3.625196 1.756393
C 9.209029 7.180178 1.727861
C 3.019902 0.754291 1.784542
C 1.794950 1.479987 1.745872
C 1.795172 2.907927 1.810052
C 2.991933 5.042550 2.104747
C 1.788307 5.763031 1.822278
C 3.040292 3.602499 1.998941
C 1.803669 7.195359 1.771830
C 5.492960 0.732510 1.884261
C 5.483465 7.865180 2.037034
C 4.266878 2.845390 2.002147
C 4.208390 7.187497 2.169371
C 7.958156 0.759916 1.720083
C 6.712054 1.453109 1.785496
C 7.974698 7.890558 1.767481
C 6.696316 2.882122 1.884557
C 7.982628 5.091889 1.891820
C 7.921263 3.644380 1.830004
C 6.754812 7.179198 1.979858
C 4.086524 5.850231 2.522559
N 5.464866 3.455544 2.126789
N 6.866846 5.816002 2.156032
N 3.017295 7.910129 1.819852
N 4.241256 1.423383 1.866382
N 9.208654 5.753388 1.742507
Mn 5.562173 4.980140 3.436082
