25
Title                                   
C 7.786248 1.768417 1.955207
C 7.769977 4.289927 1.936829
C 7.786627 6.811065 1.954712
C 1.694153 0.718561 1.965603
C 0.643786 1.767948 1.958418
C 1.694143 7.860927 1.965760
C 1.354290 5.531541 1.936679
C 0.659341 4.289923 1.941219
C 1.353754 3.048224 1.936942
C 0.643947 6.811503 1.957939
C 4.214916 0.734651 1.959914
C 2.973635 1.429573 1.949613
C 4.214818 7.845177 1.960094
C 2.973708 7.150002 1.949839
C 6.736762 0.718607 1.962212
C 5.456437 1.429128 1.946001
C 6.736901 7.861057 1.962152
C 7.075256 5.531480 1.930218
C 7.075137 3.048364 1.930942
C 5.456573 7.150686 1.946088
C 2.784653 2.859889 1.882710
C 2.785269 5.719582 1.882518
C 5.644117 2.859639 1.876782
C 5.644183 5.720450 1.876283
Mo 4.211909 4.289691 1.149425
