25
Title                                   
C 7.777370 1.753128 1.909235
C 7.755498 4.290038 1.906259
C 7.777503 6.826676 1.909484
C 1.678261 0.727050 1.909814
C 0.652288 1.752923 1.909467
C 1.678397 7.852278 1.909932
C 1.343495 5.564717 1.906951
C 0.674479 4.289795 1.906594
C 1.343370 3.014733 1.906723
C 0.652442 6.826473 1.909646
C 4.214688 0.749335 1.907078
C 2.939983 1.418294 1.907088
C 4.214768 7.830509 1.907218
C 2.940198 7.161298 1.907193
C 6.751416 0.727378 1.909520
C 5.489453 1.418665 1.906540
C 6.751552 7.852516 1.909623
C 7.086265 5.564921 1.906458
C 7.086232 3.015113 1.905997
C 5.489591 7.161226 1.906724
N 2.729671 2.804322 1.904059
N 2.729862 5.775086 1.904244
N 5.699975 2.804740 1.903441
N 5.699999 5.775033 1.903779
Mo 4.213784 4.289764 1.901035
