25
Title                                   
C 7.784838 1.766142 1.908732
C 7.764240 4.294405 1.905775
C 7.791617 6.824770 1.909103
C 1.679955 0.713217 1.909394
C 0.638069 1.754844 1.909099
C 1.691402 7.860125 1.909717
C 1.345999 5.534294 1.907651
C 0.665619 4.285434 1.906584
C 1.346757 3.022010 1.906416
C 0.644816 6.813524 1.909472
C 4.210137 0.740408 1.906849
C 2.946981 1.421788 1.906683
C 4.219150 7.839143 1.906989
C 2.970579 7.158857 1.907916
C 6.738095 0.719550 1.909077
C 5.458811 1.420987 1.906662
C 6.749670 7.866341 1.909108
C 7.083008 5.557721 1.905752
C 7.083682 3.045606 1.906116
C 5.482444 7.157660 1.906175
C 2.747179 5.757834 1.906823
C 5.682538 2.822017 1.905061
N 2.719411 2.794200 1.903258
N 5.710519 5.785275 1.902552
Ag 4.215024 4.289861 1.903135
