25
Title                                   
C 7.787483 1.745666 1.908980
C 7.714528 4.289963 1.905782
C 7.787450 6.833759 1.909165
C 1.708017 0.716028 1.909341
C 0.643709 1.764213 1.908994
C 1.708115 7.863279 1.909589
C 1.323843 5.536554 1.907283
C 0.610927 4.289908 1.906585
C 1.323778 3.043117 1.907194
C 0.643731 6.815144 1.909280
C 4.234345 0.747413 1.906893
C 2.984724 1.436498 1.907408
C 4.234353 7.832247 1.907073
C 2.984806 7.143092 1.907685
C 6.757779 0.724939 1.909251
C 5.504949 1.421268 1.906122
C 6.757817 7.854720 1.909384
C 7.047884 5.560068 1.905830
C 7.048031 3.019713 1.905733
C 5.504908 7.158508 1.906289
C 2.751510 2.874518 1.905912
C 2.751655 5.705378 1.906055
N 5.696752 2.802248 1.902859
N 5.696623 5.777441 1.903075
Pd 4.162822 4.290330 1.902337
