32
Title                                   
C 0.011042 1.795335 5.685331
C 1.248749 2.512612 5.758985
C 1.257388 3.931468 5.962376
C 0.049655 6.008783 6.403982
C 0.017190 4.640746 6.060243
C -0.055264 10.357267 6.172316
C 1.212118 12.467667 5.828457
C -0.008255 14.625203 5.635552
C 1.228529 15.343600 5.614264
C 1.236054 16.776716 5.602991
C -0.015732 13.195228 5.731899
C 2.481162 1.795459 5.685812
C 3.720445 2.516812 5.734698
C 3.728477 3.928449 5.896876
C 2.474613 0.366042 5.614068
C 2.483982 6.011355 6.409839
C 3.710761 8.225772 6.363589
C 2.501785 4.642092 6.063523
C 2.464797 10.367200 6.171807
C 3.690191 12.491255 5.785760
C 2.459836 14.622905 5.636133
C 3.699829 15.341404 5.606701
C 3.707702 16.774285 5.596190
C 2.451125 13.190298 5.733159
C 3.679788 11.072685 5.983024
C 1.206755 11.044154 6.074513
C 0.002078 0.366073 5.613946
C 2.532693 8.981654 6.550149
N 4.839939 8.988026 6.498062
N 1.267138 6.586810 6.771228
N 3.747229 6.775568 6.495323
Tc 1.225536 8.304400 7.710504
