32
Title                                   
C -0.000088 1.795942 5.629378
C 1.235488 2.510660 5.716214
C 1.235383 3.920940 5.960529
C 0.022364 5.980813 6.473138
C -0.009701 4.621741 6.086335
C -0.016971 10.373755 6.204746
C 1.235593 12.486619 5.838486
C 0.001018 14.632691 5.601638
C 1.235581 15.350976 5.564447
C 1.235620 16.781095 5.534218
C 0.001389 13.207644 5.731267
C 2.471095 1.795957 5.629421
C 3.707575 2.511127 5.697273
C 3.707483 3.916510 5.905232
C 2.472008 0.368932 5.543167
C 2.448384 5.980853 6.473020
C 3.707507 8.204371 6.507167
C 2.480416 4.621764 6.086259
C 2.487906 10.373737 6.204270
C 3.707590 12.503318 5.804841
C 2.470258 14.632667 5.601586
C 3.707629 15.348088 5.557306
C 3.707697 16.779293 5.527282
C 2.469861 13.207657 5.731218
C 3.707638 11.091740 6.021951
C 1.235570 11.076555 6.089410
C -0.000771 0.368953 5.543134
C 2.526225 8.986249 6.528585
C 4.888805 8.986335 6.529920
N 1.235339 6.553882 6.780723
N 3.707409 6.741693 6.582374
Mn 1.236029 8.334765 7.766768
