31
Title                                   
C -0.051534 1.813313 5.924707
C 1.173591 2.545860 5.939531
C 1.145697 3.987013 5.996061
C -0.105574 4.703956 6.085458
C 0.108508 10.278509 5.898374
C 1.303642 12.429502 5.924781
C 0.031668 14.600716 5.891771
C 1.253049 15.330655 5.898304
C 1.222780 16.774816 5.901066
C 0.061108 13.151631 5.893884
C 2.419672 1.815894 5.904619
C 3.647857 2.538166 5.914907
C 3.613948 3.983274 5.949600
C 2.448865 0.370188 5.896602
C 3.655528 6.769177 6.123164
C 3.767845 8.251433 6.116942
C 2.369121 4.716853 5.940234
C 2.579876 10.288732 6.062171
C 3.771471 12.445764 5.892777
C 2.493019 14.603737 5.898732
C 3.724416 15.322833 5.891566
C 3.694659 16.770861 5.894214
C 2.523710 13.152650 5.909169
C 3.806913 11.012500 5.916107
C -0.022628 0.369986 5.905644
C 0.054145 8.854342 5.876813
C 2.429688 6.156046 5.928220
N 2.598246 8.954193 6.346894
N -0.135153 6.062637 6.334270
N 1.332148 10.995883 5.969338
Ru 1.226135 7.507029 6.675280
