32
Title                                   
C 0.555073 0.768939 1.625318
C 9.191292 1.479369 1.668880
C 0.555070 7.890093 1.634067
C 9.186488 2.904677 1.735060
C 0.555076 5.034851 1.694991
C 9.199392 5.750289 1.748948
C 0.554922 3.613981 1.704296
C 9.194592 7.177412 1.699713
C 3.015732 0.764811 1.717244
C 1.788445 1.479401 1.668055
C 3.014110 7.893459 1.761384
C 1.792745 2.904856 1.733749
C 2.989110 5.043702 1.989608
C 1.780491 5.750105 1.747000
C 3.015422 3.609282 1.938385
C 1.784674 7.177119 1.698229
C 5.489728 0.751115 1.860769
C 4.248787 1.463791 1.834129
C 5.489685 7.886977 1.978823
C 4.244554 2.870194 2.025652
C 4.135876 5.813726 2.328630
C 5.489207 3.483340 2.355610
C 4.229464 7.194828 2.010147
C 7.963736 0.765024 1.718489
C 6.730692 1.463953 1.835140
C 7.965282 7.893690 1.763275
C 6.734594 2.870230 2.027126
C 7.991209 5.043751 1.992905
C 6.844661 5.814156 2.331229
C 7.964006 3.609202 1.940860
C 6.750002 7.194953 2.012067
Mo 5.489647 5.049914 3.533722
