31
Title                                   
C 0.552896 0.751150 1.809177
C 9.193591 1.467657 1.829026
C 0.557597 7.887514 1.810299
C 9.219974 2.889813 1.795102
C 0.561870 5.036914 1.764099
C 9.213842 5.764582 1.800201
C 0.560912 3.615271 1.762499
C 9.192008 7.184927 1.806804
C 3.012587 0.765353 1.899531
C 1.778137 1.460644 1.824353
C 3.020808 7.883941 1.930735
C 1.766477 2.884607 1.809918
C 2.997354 5.027637 1.909845
C 1.782294 5.749357 1.805916
C 2.974776 3.579815 1.870789
C 1.790862 7.175248 1.847000
C 5.477184 0.797326 2.000043
C 4.225413 1.521191 1.945193
C 5.478298 7.911525 1.996952
C 4.190650 5.745666 2.146882
C 4.249780 7.153571 2.039557
C 7.956521 0.771590 1.900518
C 6.732737 1.523094 2.012162
C 7.956027 7.891994 1.865816
C 6.821398 2.922345 2.110643
C 8.005035 5.047832 1.849132
C 6.790737 5.758079 1.826826
C 8.021391 3.606205 1.899117
C 6.714982 7.162344 1.907756
N 4.156510 2.896897 1.890187
Zn 5.488727 4.307954 2.153220
