32
Title                                   
C 0.554401 0.776428 1.662590
C 9.193620 1.474476 1.698732
C 0.560121 7.897463 1.675995
C 9.198128 2.902519 1.762349
C 0.565349 5.040503 1.698457
C 9.205098 5.744505 1.767872
C 0.570478 3.613202 1.713791
C 9.196884 7.171352 1.725488
C 3.017417 0.759901 1.755684
C 1.797675 1.481118 1.700857
C 1.814127 2.912919 1.744152
C 2.994686 5.067760 1.976608
C 1.789153 5.767558 1.747055
C 3.045479 3.638698 1.937147
C 1.782277 7.190798 1.732687
C 5.487672 0.737640 1.885991
C 4.251220 1.455708 1.869632
C 5.464611 7.860999 1.978933
C 4.260589 2.869418 2.056690
C 5.507711 3.477588 2.397322
C 4.192720 7.196177 2.020971
C 7.961843 0.751132 1.738130
C 6.729330 1.446223 1.862255
C 7.956927 7.881739 1.773529
C 6.742309 2.855478 2.069386
C 7.998688 5.033509 2.016302
C 6.841734 5.790889 2.346116
C 7.973378 3.599741 1.974171
C 6.735830 7.166829 2.012202
N 4.080973 5.866240 2.373667
N 3.007803 7.905980 1.788623
Nb 5.455533 5.076702 3.610116
