31
Title                                   
C -0.011188 1.805827 5.967640
C 1.216074 2.541234 5.980093
C 1.209288 3.980923 6.004047
C -0.030609 4.718842 6.013285
C 0.028102 10.298483 6.014327
C 1.259851 12.442003 5.981198
C 0.014563 14.605876 5.951130
C 1.242071 15.333458 5.945810
C 1.234295 16.775961 5.944913
C 0.023433 13.157279 5.969180
C 2.458685 1.813454 5.968495
C 3.698262 2.528482 5.979916
C 3.688044 3.968903 6.003510
C 2.466569 0.369828 5.950465
C 3.688962 6.771884 6.036604
C 3.724786 8.249936 6.036955
C 2.449459 4.691398 6.015942
C 2.505126 10.278270 6.018391
C 3.722280 12.457855 5.980668
C 2.474378 14.611370 5.951143
C 3.713761 15.325849 5.946599
C 3.705975 16.771268 5.945890
C 2.481830 13.162982 5.969348
C 3.734633 11.029697 6.005068
C -0.003381 0.365715 5.950133
C -0.010137 8.900722 6.026343
C 2.494527 6.101229 6.034959
N 2.527313 8.915820 6.039629
N -0.066706 6.099647 6.028628
N 1.268194 10.999327 6.005779
Cu 1.233977 7.484627 6.035111
