32
Title                                   
C 0.554752 0.787987 1.745053
C 9.184691 1.497106 1.793597
C 0.555461 7.905094 1.716819
C 9.166857 2.925545 1.871881
C 0.555125 5.042681 1.795521
C 9.197432 5.759918 1.808684
C 0.555191 3.621854 1.838643
C 9.197387 7.181471 1.751738
C 3.013926 0.762508 1.766658
C 1.794765 1.495983 1.783906
C 3.016593 7.902742 1.751245
C 1.812593 2.924602 1.854736
C 3.028854 5.079073 1.929958
C 1.782615 5.759389 1.786848
C 3.067469 3.633097 1.962675
C 1.783399 7.181077 1.736805
C 5.490807 0.700507 1.884891
C 4.266090 1.427264 1.866682
C 4.299389 2.844551 2.039635
C 4.214038 7.148517 1.885478
C 7.966434 0.763302 1.781153
C 6.714902 1.428481 1.881206
C 7.964702 7.903546 1.768267
C 6.679657 2.845445 2.061757
C 7.953964 5.081150 1.981257
C 7.912856 3.634273 2.000613
C 6.768518 7.150966 1.917370
N 4.176556 5.828503 2.050843
N 5.486952 3.452065 2.290768
N 6.812459 5.836685 2.125379
N 5.491349 7.830560 1.891148
Cu 5.467979 5.075246 3.392286
