31
Title                                   
C 0.005483 1.774413 5.795489
C 1.242494 2.499408 5.844184
C 1.246870 3.913554 5.974139
C 0.006181 4.639841 6.062760
C -0.019225 10.371910 6.192800
C 1.224975 12.467156 5.893325
C -0.000072 14.616359 5.750758
C 1.232123 15.335170 5.729357
C 1.236586 16.761945 5.724123
C -0.005112 13.187203 5.831437
C 2.478069 1.775355 5.789120
C 3.715498 2.484564 5.832863
C 3.719605 3.909425 5.956686
C 2.473711 0.348123 5.733153
C 3.721217 6.784408 6.249522
C 3.712050 8.290960 6.293685
C 2.490041 4.634724 6.033367
C 2.454663 10.346972 6.057819
C 3.697645 12.488535 5.852727
C 2.461388 14.614996 5.737705
C 3.704097 15.326254 5.722372
C 3.708616 16.759320 5.720012
C 2.458008 13.184360 5.802676
C 3.693621 11.081462 5.986960
C 0.002055 0.347650 5.737824
C 2.475083 8.950896 6.123703
C 4.919497 9.011247 6.526694
C 2.517297 6.036964 6.185275
C -0.012658 6.036496 6.261099
N 1.219024 11.079419 6.067623
Sc 1.307664 7.499059 7.231945
