32
Title                                   
C 0.557456 0.767833 1.676426
C 9.195549 1.479990 1.720746
C 0.568250 7.890045 1.669136
C 9.192831 2.909388 1.780779
C 0.563135 5.045040 1.710996
C 9.204226 5.748880 1.788169
C 0.560786 3.612843 1.732553
C 9.204658 7.175665 1.747848
C 3.022391 0.758625 1.734456
C 1.800354 1.473010 1.711858
C 1.796580 2.896615 1.754260
C 3.013188 5.029056 1.900242
C 1.794640 5.757671 1.705669
C 3.027035 3.596071 1.915179
C 1.800290 7.182636 1.673624
C 5.490762 0.755170 1.868774
C 5.479046 7.895107 1.986138
C 4.248503 2.843694 2.052624
C 4.229549 7.193075 1.972929
C 7.961393 0.761935 1.757452
C 6.716915 1.466351 1.850018
C 7.968624 7.897829 1.812201
C 6.734126 2.877443 2.047948
C 7.990314 5.048885 2.038748
C 7.960651 3.611783 1.977159
C 6.746330 7.197204 2.052971
C 4.152402 5.818156 2.162197
C 5.472970 3.464676 2.338570
C 6.837914 5.812545 2.360042
N 3.024618 7.913821 1.710459
N 4.234014 1.439261 1.833202
Zr 5.384264 5.090885 3.670126
