32
Title                                   
C 0.558531 0.791828 1.768103
C 9.186225 1.495271 1.819539
C 0.560557 7.904094 1.738685
C 9.170666 2.924921 1.888071
C 0.550186 5.043320 1.792257
C 9.199221 5.757067 1.818377
C 0.568488 3.618948 1.851897
C 9.198834 7.188628 1.775513
C 3.014578 0.756902 1.767563
C 1.804358 1.500773 1.791241
C 3.023164 7.893366 1.755749
C 1.810635 2.921415 1.851762
C 3.036687 5.074952 1.871431
C 1.785920 5.743752 1.762225
C 1.789809 7.171986 1.737919
C 5.483857 0.711531 1.898294
C 4.259793 1.434711 1.848120
C 4.298483 2.859853 1.957939
C 4.216700 7.136034 1.871410
C 7.964098 0.768076 1.810592
C 6.711673 1.439181 1.892614
C 7.964223 7.902599 1.797667
C 6.672769 2.859555 2.014731
C 7.949473 5.086786 1.987936
C 7.911849 3.635435 1.992947
C 6.761840 7.155247 1.937955
N 4.176016 5.795879 2.003328
N 5.461377 3.494868 2.167703
N 6.805679 5.830683 2.153539
N 5.491790 7.827308 1.925267
N 3.078777 3.629785 1.908820
Zn 5.467506 5.056435 3.554306
