32
Title                                   
C 0.555137 0.775325 1.667246
C 9.182196 1.488356 1.724812
C 0.554920 7.887587 1.642607
C 9.182368 2.908374 1.813867
C 0.554907 5.035616 1.719848
C 9.188778 5.733348 1.736446
C 0.555043 3.617912 1.788111
C 9.182671 7.168365 1.686699
C 3.015947 0.763671 1.716692
C 1.797879 1.488408 1.718188
C 3.030501 7.895335 1.720081
C 1.797162 2.908422 1.807117
C 3.012521 5.041385 1.958804
C 1.790648 5.733554 1.727984
C 1.797144 7.168666 1.678229
C 5.489924 0.756742 1.886650
C 4.247903 1.465342 1.843652
C 4.255462 2.871759 2.034045
C 4.242803 7.186220 1.953610
C 7.964495 0.763067 1.728676
C 6.732613 1.464987 1.856006
C 7.949930 7.895287 1.733251
C 6.724817 2.871553 2.045940
C 7.967988 5.041676 1.972841
C 6.737688 7.186376 1.966232
C 4.170228 5.807977 2.302983
C 5.488306 3.501502 2.399124
C 6.810506 5.808297 2.317358
N 5.489986 7.882646 1.964237
N 3.031630 3.613720 1.957276
N 7.948667 3.613709 1.970558
Ta 5.482997 5.066008 3.674331
