32
Title                                   
C -0.014507 1.790347 5.862028
C 1.217879 2.509889 5.919749
C 1.203281 3.936242 6.058514
C -0.044297 6.031943 6.339571
C -0.044541 4.644420 6.106629
C 0.043367 10.276939 5.840630
C 1.286079 12.431540 5.822737
C 0.031128 14.607439 5.760371
C 1.258934 15.330375 5.766761
C 1.242678 16.764623 5.783474
C 0.049596 13.170086 5.777753
C 2.456090 1.786978 5.866172
C 3.685558 2.511963 5.898164
C 3.666456 3.935071 6.004945
C 2.473854 0.355746 5.803056
C 2.403208 6.074171 6.348673
C 3.853635 8.283284 6.431570
C 2.432982 4.663671 6.123299
C 2.583314 10.317676 6.055638
C 3.760031 12.466816 5.817774
C 2.497948 14.605345 5.777409
C 3.731790 15.327010 5.764440
C 3.715161 16.762472 5.779196
C 2.513878 13.170472 5.814790
C 3.781046 11.040215 5.887625
C 1.306228 10.984304 5.888430
C 0.001670 0.357494 5.798980
N 2.646731 9.030975 6.581190
N 4.861321 8.864270 5.498549
N 1.159082 6.679893 6.661456
N 3.661182 6.786115 6.355502
Os 0.836570 8.549537 7.256227
