31
Title                                   
C -0.004916 1.797098 5.928423
C 1.226117 2.527977 5.955883
C 1.225616 3.962176 6.004895
C -0.020351 4.682070 5.975728
C 0.013054 10.330715 5.939780
C 1.245405 12.453806 5.953171
C 0.008109 14.615947 5.918508
C 1.237596 15.339010 5.921065
C 1.234139 16.773958 5.918620
C 0.010190 13.175742 5.928136
C 2.464536 1.800524 5.946478
C 3.703431 2.511516 5.949389
C 3.697027 3.945395 5.991741
C 2.467923 0.364208 5.925201
C 3.721776 6.737800 6.053041
C 3.740610 8.236518 6.030896
C 2.468013 4.671868 6.079421
C 2.483179 10.313438 6.046653
C 3.713468 12.475677 5.938599
C 2.469664 14.617632 5.927894
C 3.709653 15.331509 5.916482
C 3.705826 16.771237 5.914685
C 2.474635 13.179100 5.945909
C 3.716591 11.053671 5.956832
C -0.002254 0.361892 5.914873
C 2.505043 8.912173 6.202488
C 0.007666 8.932679 5.902451
C 2.519210 6.079949 6.244546
N -0.044783 6.057082 5.921251
N 1.249757 11.048064 5.987144
Mn 1.196485 7.497714 6.461018
