31
Title                                   
C 0.006319 1.823177 5.968810
C 1.240403 2.553883 5.980354
C 1.242180 4.008112 5.995886
C -0.007780 4.700379 5.978867
C -0.010913 10.269429 5.989430
C 1.228019 12.441225 5.980580
C -0.002379 14.616281 5.960796
C 1.233309 15.339298 5.959894
C 1.234871 16.781314 5.958406
C -0.002710 13.174471 5.970008
C 2.469558 1.820148 5.975144
C 3.708695 2.536693 5.978600
C 3.708446 3.973491 5.993083
C 2.469186 0.377241 5.962434
C 3.733673 6.735597 6.020254
C 3.727609 8.216733 6.029265
C 2.487362 4.718102 6.025460
C 2.467886 10.286914 6.034225
C 3.707428 12.451906 5.981570
C 2.467742 14.613437 5.964983
C 3.704933 15.339833 5.959550
C 3.706966 16.784924 5.957895
C 2.467040 13.169143 5.977233
C 3.702670 11.008994 6.001435
C 1.229163 10.999229 5.999320
C 0.002085 0.378638 5.958728
C 2.510864 8.861326 6.091432
N 4.917370 8.882138 5.969168
N 2.541470 6.108598 6.087845
N -0.047245 6.082252 5.946996
Fe 1.242275 7.505243 6.043547
