32
Title                                   
C 0.554458 0.777503 1.652565
C 9.190537 1.480449 1.685438
C 0.559955 7.900129 1.681157
C 9.192979 2.907290 1.746772
C 0.565038 5.041093 1.696537
C 9.207409 5.747576 1.795411
C 0.567175 3.615769 1.693831
C 9.201355 7.176018 1.739871
C 3.015729 0.754850 1.744691
C 1.794244 1.477850 1.682960
C 1.811323 2.912657 1.714696
C 2.990494 5.063401 1.970354
C 1.790711 5.765493 1.753555
C 3.043665 3.631053 1.910696
C 1.786052 7.193044 1.746057
C 5.487877 0.734246 1.875100
C 4.250463 1.449945 1.854650
C 5.470087 7.862356 1.965979
C 4.250511 2.857483 2.046558
C 5.491377 3.455923 2.453422
C 4.193573 7.197126 2.021802
C 7.964067 0.756711 1.731600
C 6.731248 1.449756 1.869279
C 7.960620 7.885979 1.777400
C 6.745152 2.849530 2.100560
C 8.009633 5.039038 2.064081
C 6.856972 5.815017 2.420642
C 7.968175 3.605388 1.990261
C 6.743467 7.181886 2.020239
N 4.077456 5.859653 2.386722
N 3.006859 7.901328 1.805469
Re 5.455105 5.065653 3.475147
