31
Title                                   
C 0.009379 1.809772 5.943262
C 1.241175 2.544703 5.953489
C 1.242983 3.997820 6.008220
C 0.004857 4.720712 6.101911
C -0.040237 10.279249 6.056555
C 1.208793 12.436775 5.930498
C -0.006702 14.610829 5.922456
C 1.227879 15.332535 5.919527
C 1.234853 16.776063 5.922549
C -0.012834 13.164170 5.927334
C 2.476973 1.817929 5.921121
C 3.721761 2.529772 5.930062
C 3.729944 3.970154 5.951479
C 2.470811 0.371400 5.915079
C 3.724316 6.771735 6.027447
C 3.688480 8.209676 5.992084
C 2.498013 4.673862 5.934950
C 2.433610 10.315407 5.836243
C 3.694889 12.454934 5.900929
C 2.455125 14.603443 5.908414
C 3.697032 15.326412 5.912991
C 3.703898 16.772999 5.915704
C 2.449628 13.153737 5.902455
C 3.689853 11.027818 5.902189
C 0.000707 0.366287 5.928046
C 2.474792 8.926362 5.759654
N 4.892187 8.903789 6.362796
N 2.533028 6.052441 5.917769
N -0.040793 6.108735 6.347929
N 1.194735 11.000870 5.955319
Ta 1.487363 7.527759 6.792738
