31
Title                                   
C 0.002971 1.812026 5.931756
C 1.232204 2.545112 5.934768
C 1.228685 4.005663 5.973416
C -0.009502 4.723240 6.070001
C -0.020278 10.278103 6.059266
C 1.226000 12.427945 5.950842
C 0.001635 14.604523 5.940828
C 1.233053 15.328915 5.933409
C 1.234940 16.774716 5.927145
C -0.000444 13.154211 5.952302
C 2.469496 1.819681 5.912392
C 3.713685 2.530529 5.917680
C 3.719518 3.975638 5.939412
C 2.469514 0.370040 5.916720
C 3.694080 6.783526 6.012229
C 3.677139 8.234591 5.982158
C 2.485008 4.674889 5.906947
C 2.470242 10.315613 5.887023
C 3.704435 12.455079 5.942178
C 2.461665 14.600934 5.930547
C 3.703445 15.321262 5.930381
C 3.704987 16.771091 5.923568
C 2.459749 13.148813 5.934233
C 3.703382 11.025741 5.955406
C -0.000544 0.365319 5.928525
N 2.495653 8.938355 5.724975
N 4.869901 8.896381 6.351067
N 2.520714 6.064512 5.856066
N -0.059495 6.127659 6.354438
N 1.218732 10.971786 5.960273
Nb 1.475927 7.512260 6.761248
