25
Title                                   
C 7.779086 1.748835 1.908493
C 7.724301 4.289908 1.905302
C 7.779111 6.830759 1.908832
C 1.687618 0.714536 1.909271
C 0.640599 1.763382 1.908928
C 1.687627 7.865166 1.909472
C 1.322614 5.544849 1.908020
C 0.623975 4.289971 1.906751
C 1.322430 3.035001 1.907918
C 0.640703 6.816273 1.909185
C 4.233155 0.740254 1.907344
C 2.971744 1.424441 1.908198
C 4.233214 7.839440 1.907303
C 2.971812 7.155431 1.908448
C 6.751779 0.728356 1.908869
C 5.500834 1.418045 1.906243
C 6.751748 7.851185 1.908949
C 7.060214 5.560849 1.905894
C 7.060231 3.018827 1.905377
C 5.500857 7.161483 1.906268
C 2.762659 2.844377 1.907314
C 2.762821 5.735499 1.907661
N 5.693708 2.811808 1.903268
N 5.693678 5.767659 1.903476
V 4.214020 4.289679 1.897318
