32
Title                                   
C 0.552269 0.776715 1.636360
C 9.184170 1.492960 1.657883
C 0.572150 7.899995 1.656399
C 9.175729 2.923306 1.696381
C 0.561616 5.045560 1.655271
C 9.205161 5.760430 1.735600
C 0.555366 3.616233 1.661328
C 9.210953 7.189472 1.719253
C 3.015928 0.748901 1.746379
C 1.796793 1.472451 1.678259
C 1.790758 2.896931 1.712071
C 2.989023 5.023916 2.006673
C 1.797278 5.752622 1.733371
C 3.020571 3.588714 1.950857
C 1.802286 7.185675 1.708975
C 5.483274 0.740221 1.882387
C 5.482339 7.870401 1.997967
C 4.225401 2.818844 2.120144
C 4.211325 7.189804 2.069493
C 7.952902 0.770860 1.705239
C 6.711046 1.471626 1.823454
C 7.973312 7.905081 1.778327
C 6.721797 2.873220 2.026530
C 7.996006 5.073785 1.971369
C 7.932959 3.635017 1.898226
C 6.764857 7.200014 2.024043
C 4.104405 5.820533 2.414160
C 5.467770 3.427603 2.478366
N 6.889536 5.844249 2.372974
N 3.029280 7.904616 1.786049
N 4.233152 1.429657 1.890344
W 5.524350 5.061779 3.519363
