31
Title                                   
C 0.003364 1.830758 5.956635
C 1.238944 2.565070 5.971140
C 1.240825 4.017618 6.001483
C -0.007758 4.715262 6.015686
C -0.007689 10.253130 6.024348
C 1.228277 12.432164 5.982991
C -0.002195 14.611981 5.946183
C 1.234009 15.338179 5.938752
C 1.234814 16.783052 5.934214
C -0.003360 13.167350 5.968785
C 2.469847 1.827759 5.956388
C 3.707331 2.545832 5.969267
C 3.707450 3.989391 5.998921
C 2.469662 0.381444 5.938024
C 3.734299 6.736768 6.047612
C 3.729604 8.216744 6.050902
C 2.485180 4.734050 6.014874
C 2.466191 10.273462 6.025189
C 3.707588 12.441386 5.981927
C 2.468695 14.609413 5.946464
C 3.705291 15.337158 5.938607
C 3.706935 16.785891 5.934037
C 2.468082 13.161129 5.969173
C 3.702529 10.992664 6.010325
C 1.230235 10.989543 6.011624
C 0.000957 0.382634 5.938028
C 2.501660 8.840652 6.046279
N 4.925200 8.863048 6.044783
N 2.534757 6.128562 6.040000
N -0.040439 6.100137 6.042444
Co 1.246209 7.505913 6.056116
