32
Title                                   
C 0.555339 0.788317 1.688523
C 9.189124 1.491970 1.711845
C 0.568330 7.905517 1.671816
C 9.179501 2.925044 1.779280
C 0.567376 5.052614 1.703329
C 9.207644 5.761005 1.747863
C 0.562230 3.618693 1.748582
C 9.207647 7.185810 1.708460
C 3.020497 0.757939 1.791911
C 1.803526 1.488080 1.749146
C 1.811127 2.913103 1.796527
C 3.008124 5.058154 1.979218
C 1.791469 5.772543 1.739220
C 3.063389 3.618485 1.969081
C 1.786549 7.192015 1.716545
C 5.490370 0.716693 1.900108
C 5.471136 7.853383 1.994329
C 4.259777 2.825755 2.080218
C 4.204829 7.182453 2.037992
C 7.956754 0.764835 1.708874
C 6.704429 1.444244 1.823848
C 7.971313 7.899728 1.745763
C 6.712345 2.845785 2.022689
C 7.984171 5.071946 1.964768
C 7.919340 3.626443 1.936985
C 6.764387 7.180952 1.974487
N 4.082946 5.860399 2.319973
N 5.478296 3.377055 2.406559
N 6.871220 5.842140 2.255684
N 3.015982 7.915293 1.786414
N 4.231352 1.425952 1.902387
Os 5.493246 5.048842 3.351075
