32
Title                                   
C -0.000141 1.794218 5.718124
C 1.235374 2.510759 5.794494
C 1.235445 3.922532 5.998079
C 0.014191 6.001405 6.413392
C -0.007746 4.630523 6.096822
C -0.014299 10.364576 6.139205
C 1.235631 12.484094 5.825826
C 0.000784 14.633344 5.648778
C 1.235443 15.352082 5.628291
C 1.235416 16.780832 5.621604
C 0.001198 13.205834 5.739377
C 2.471077 1.794211 5.718003
C 3.707470 2.509743 5.773432
C 3.707465 3.920640 5.940109
C 2.471588 0.368592 5.637069
C 2.456875 6.001457 6.413479
C 3.707673 8.199067 6.397637
C 2.478807 4.630537 6.096890
C 2.485487 10.364692 6.139204
C 3.707689 12.499464 5.796395
C 2.470225 14.633342 5.648702
C 3.707540 15.349162 5.623256
C 3.707463 16.780293 5.616573
C 2.470019 13.205848 5.739295
C 3.707682 11.082611 5.980337
C 1.235562 11.069874 6.040436
C -0.000700 0.368600 5.637162
C 2.527738 8.964387 6.423286
C 4.887695 8.964396 6.423666
N 1.235511 6.605777 6.707410
N 3.707576 6.753404 6.480109
Cr 1.235594 8.301030 7.594857
