32
Title                                   
C 0.017760 1.785246 5.863332
C 1.251728 2.508303 5.863648
C 1.249218 3.947600 5.869953
C 0.054324 6.087468 5.884454
C 0.003162 4.658701 5.881446
C -0.002491 10.300983 6.219593
C 1.261483 12.424574 5.994391
C 0.026978 14.602624 5.914945
C 1.258976 15.325319 5.892584
C 1.256289 16.758533 5.870423
C 0.031636 13.168357 5.967009
C 2.486548 1.784523 5.861429
C 3.722762 2.504605 5.867727
C 3.719291 3.933749 5.880323
C 2.490898 0.349952 5.862272
C 2.434837 6.095912 5.874439
C 3.710426 8.295238 6.080198
C 2.491354 4.662443 5.877646
C 2.525458 10.289682 5.994000
C 3.737749 12.465186 5.965375
C 2.492319 14.599748 5.897137
C 3.730504 15.320352 5.888237
C 3.728028 16.757206 5.869133
C 2.493556 13.164063 5.933568
C 3.736158 11.038737 6.030125
C 1.259845 10.982507 6.087441
C 0.019624 0.350133 5.865754
N 2.600562 8.945761 5.790541
N 4.825951 8.946890 6.571935
N 1.241256 6.727518 5.848499
N 3.721757 6.838951 5.922287
Pt 0.679386 8.426458 8.261457
