31
Title                                   
C 0.549369 0.751261 1.589709
C 9.190359 1.467748 1.690417
C 0.553204 7.885432 1.592906
C 9.211729 2.890313 1.672337
C 0.559052 5.035466 1.536295
C 9.211255 5.758753 1.673215
C 0.554495 3.613759 1.529845
C 9.184832 7.181260 1.668869
C 3.006683 0.761922 1.789124
C 1.779599 1.462212 1.617290
C 3.010557 7.888099 1.823861
C 1.769268 2.887362 1.592144
C 2.990062 5.030862 1.850546
C 1.785370 5.746725 1.600410
C 2.977235 3.573893 1.799487
C 1.788852 7.173967 1.646007
C 5.475935 0.795569 2.167082
C 4.209367 1.507664 2.010867
C 5.472205 7.915406 2.159492
C 4.102302 5.786256 2.293908
C 4.220822 7.174713 2.114120
C 7.963889 0.770103 1.885344
C 6.758954 1.503213 2.192500
C 7.961078 7.895993 1.854196
C 6.912875 2.873279 2.446376
C 8.020758 5.046077 1.945678
C 6.840143 5.789221 2.114986
C 8.040752 3.596082 2.013263
C 6.730962 7.180272 2.077103
N 4.129944 2.870774 2.009209
Cd 5.479466 4.328385 2.862712
