32
Title                                   
C 0.552277 0.777727 1.673659
C 9.186424 1.491773 1.699964
C 0.570656 7.898210 1.674145
C 9.176819 2.924580 1.751433
C 0.558964 5.047768 1.710480
C 9.205243 5.761347 1.747313
C 0.553802 3.616078 1.728440
C 9.210131 7.186497 1.721171
C 3.018865 0.747193 1.767821
C 1.797382 1.473001 1.723656
C 1.789635 2.898060 1.778367
C 2.998482 5.026305 2.019844
C 1.795176 5.755736 1.770076
C 3.016258 3.592883 1.987483
C 1.800113 7.182741 1.723598
C 5.486767 0.737115 1.877859
C 5.484763 7.869670 1.985369
C 4.238617 2.831493 2.104352
C 4.219812 7.171884 2.050974
C 7.952761 0.767745 1.725785
C 6.708027 1.467968 1.824523
C 7.971531 7.903320 1.769021
C 6.710477 2.881968 2.012139
C 7.978031 5.077680 1.952747
C 7.934247 3.635976 1.917366
C 6.761061 7.186505 1.984184
C 4.136934 5.810417 2.336078
C 5.463169 3.464831 2.358162
N 6.854275 5.829432 2.250418
N 3.025923 7.902587 1.780125
N 4.233011 1.424902 1.882148
V 5.544128 5.067796 3.424798
