32
Title                                   
C 0.555238 0.767927 1.661391
C 9.191215 1.478080 1.703129
C 0.555104 7.890705 1.665795
C 9.187307 2.904720 1.762274
C 0.554886 5.036032 1.723311
C 9.198509 5.751301 1.766140
C 0.554883 3.615352 1.733922
C 9.194156 7.177777 1.723005
C 3.015750 0.764796 1.752225
C 1.788637 1.478154 1.702448
C 3.013579 7.893223 1.784130
C 1.792059 2.904780 1.761511
C 2.996578 5.043518 1.971346
C 1.780824 5.751139 1.764885
C 3.014120 3.608254 1.936046
C 1.785322 7.177560 1.721911
C 5.489850 0.751859 1.889506
C 4.249315 1.463766 1.862493
C 5.489771 7.888944 1.981490
C 4.248066 2.875121 2.017937
C 4.162502 5.799054 2.245301
C 5.489709 3.510953 2.281863
C 4.234152 7.189337 1.998249
C 7.964006 0.764876 1.753319
C 6.730466 1.463877 1.863329
C 7.965963 7.893356 1.785727
C 6.731491 2.875142 2.018892
C 7.983139 5.043544 1.973852
C 6.817524 5.799096 2.248014
C 7.965413 3.608207 1.937635
C 6.745369 7.189130 1.999838
Cr 5.488858 5.051610 3.322585
