32
Title                                   
C 0.552454 0.782814 1.708343
C 9.184977 1.500068 1.777139
C 0.570855 7.900167 1.682610
C 9.167780 2.931266 1.855278
C 0.550049 5.042519 1.740481
C 9.207006 5.767837 1.779117
C 0.550836 3.619539 1.797585
C 9.208004 7.197895 1.727728
C 3.016832 0.736307 1.752369
C 1.796613 1.480919 1.739390
C 3.044861 7.871690 1.765196
C 1.784417 2.899560 1.801705
C 3.005226 5.016232 1.926370
C 1.789690 5.735956 1.740880
C 1.806636 7.160510 1.710765
C 5.491061 0.732761 1.923025
C 4.245672 1.432958 1.861781
C 4.226265 2.852335 1.995572
C 4.261453 7.140417 1.965842
C 7.962207 0.783353 1.792706
C 6.712155 1.464944 1.922638
C 7.976617 7.922818 1.771369
C 6.685423 2.887952 2.088781
C 7.978376 5.097773 2.016398
C 7.926082 3.652036 2.018083
C 6.774876 7.192741 1.979932
C 4.175696 5.743869 2.224536
C 5.413563 3.503167 2.305237
N 6.861174 5.878804 2.282854
N 5.513527 7.852075 1.977555
N 3.002617 3.594159 1.901289
Co 5.490764 5.035748 3.180947
