32
Title                                   
C 0.558863 0.774148 1.655389
C 9.193024 1.475474 1.695956
C 0.550141 7.894407 1.657440
C 9.194549 2.900047 1.759005
C 0.559798 5.035279 1.710789
C 9.202931 5.746631 1.757421
C 0.563453 3.615085 1.729175
C 9.191085 7.173201 1.711388
C 3.019689 0.771020 1.741992
C 1.794009 1.488778 1.701001
C 3.005465 7.898006 1.774065
C 1.804596 2.919514 1.764002
C 2.996292 5.072861 1.969235
C 1.779229 5.760360 1.755368
C 3.036738 3.633226 1.939921
C 1.774885 7.186067 1.717420
C 5.484221 0.738021 1.884120
C 4.254377 1.466005 1.851913
C 5.477282 7.862236 1.977895
C 4.264824 2.882471 2.021791
C 5.507009 3.502328 2.309936
C 4.208281 7.182216 1.991088
C 7.963784 0.755286 1.740978
C 6.730323 1.449200 1.858004
C 7.959335 7.883224 1.770538
C 6.740395 2.860420 2.030177
C 7.992680 5.035726 1.983316
C 6.829011 5.786284 2.272723
C 7.972173 3.599312 1.944919
C 6.742053 7.170871 1.996594
N 4.124805 5.825099 2.264432
V 5.458462 5.068385 3.375508
