31
Title                                   
C 0.005968 1.816968 5.958571
C 1.237571 2.548691 5.971294
C 1.237558 4.001988 5.999952
C -0.005978 4.711833 6.014673
C 0.016381 10.291334 6.020310
C 1.237563 12.449425 5.978451
C 0.007230 14.610661 5.948966
C 1.237768 15.336683 5.944834
C 1.237738 16.781070 5.942187
C 0.007301 13.166296 5.967415
C 2.469252 1.816928 5.958638
C 3.709674 2.538466 5.970692
C 3.709616 3.969591 5.999696
C 2.471378 0.375172 5.943715
C 3.709572 6.738811 6.048472
C 3.709602 8.181808 6.052656
C 2.481055 4.711949 6.014700
C 2.458591 10.291267 6.020354
C 3.709667 12.446921 5.980206
C 2.468343 14.610676 5.948911
C 3.709887 15.335224 5.942527
C 3.709927 16.775928 5.939676
C 2.467939 13.166257 5.967434
C 3.709571 11.025225 6.007190
C 0.004185 0.375286 5.943719
C 2.474739 8.891737 6.042950
C 0.000318 8.891854 6.043051
N 2.527627 6.086222 6.040768
N -0.052665 6.086142 6.040455
N 1.237489 11.029327 6.004699
Cu 1.237549 7.498408 6.044037
