31
Title                                   
C 0.554951 0.763958 1.878195
C 9.192437 1.468471 1.883110
C 0.554835 7.890464 1.878242
C 9.206632 2.899614 1.881083
C 0.555129 5.035967 1.874203
C 9.206815 5.754705 1.881040
C 0.555077 3.618483 1.874149
C 9.192255 7.185834 1.883023
C 3.031144 0.776060 1.897532
C 1.786937 1.468559 1.883841
C 3.030971 7.878185 1.897851
C 1.772769 2.899705 1.882415
C 2.982669 5.050574 1.899065
C 1.772858 5.754828 1.882820
C 2.982572 3.603751 1.898554
C 1.786814 7.185920 1.884177
C 5.489489 0.801593 1.917735
C 4.247255 1.535287 1.912464
C 5.489414 7.852732 1.917689
C 4.247238 7.119027 1.912583
C 7.948059 0.775960 1.897132
C 6.731890 1.535241 1.911870
C 7.947991 7.878085 1.896772
C 7.997038 5.050538 1.896426
C 7.996969 3.603730 1.896714
C 6.731732 7.118997 1.911279
N 4.192114 2.939978 1.915301
N 4.192183 5.714428 1.915660
N 6.787633 2.939959 1.914058
N 6.787608 5.714384 1.913677
Fe 5.489906 4.327027 1.930641
