31
Title                                   
C -0.032704 1.806287 5.948340
C 1.192772 2.535518 5.949220
C 1.174866 3.974302 5.971536
C -0.073376 4.693530 6.028578
C 0.068952 10.298954 5.936646
C 1.282545 12.451897 5.958352
C 0.019094 14.616794 5.944907
C 1.247485 15.339896 5.949847
C 1.227548 16.776998 5.947597
C 0.039528 13.177186 5.940829
C 2.435748 1.809943 5.933918
C 3.669776 2.524325 5.933124
C 3.646483 3.961917 5.940748
C 2.455870 0.370590 5.940913
C 3.671048 6.748855 6.033629
C 3.748223 8.238110 6.039617
C 2.406368 4.688308 5.921813
C 2.548409 10.293730 6.038989
C 3.749606 12.462707 5.942093
C 2.488649 14.618569 5.950401
C 3.719623 15.338318 5.945279
C 3.699183 16.778456 5.942993
C 2.508059 13.180905 5.954354
C 3.772726 11.025192 5.953438
C 1.300236 11.013142 5.983777
C -0.013721 0.368687 5.946772
C 0.021770 8.873373 5.900988
C 2.453970 6.114101 5.885753
N 2.573507 8.923223 6.195368
N -0.098518 6.063079 6.190221
Cr 1.238690 7.491254 6.551158
