32
Title                                   
C 0.552779 0.779254 1.645530
C 9.184935 1.491466 1.659428
C 0.570006 7.901583 1.659407
C 9.178258 2.925487 1.709452
C 0.560998 5.049702 1.683049
C 9.203516 5.762641 1.733486
C 0.557838 3.619381 1.688056
C 9.208695 7.188099 1.705155
C 3.017240 0.749044 1.767497
C 1.799516 1.476043 1.698450
C 1.796467 2.902847 1.741721
C 2.992664 5.030122 2.045444
C 1.798091 5.758756 1.768636
C 3.023122 3.595899 1.980186
C 1.799933 7.188489 1.727638
C 5.485694 0.734413 1.866558
C 5.481170 7.867688 1.992446
C 4.236602 2.826703 2.120838
C 4.213876 7.185993 2.093181
C 7.952046 0.765972 1.688892
C 6.708120 1.465849 1.799038
C 7.968224 7.899259 1.748503
C 6.720287 2.871865 2.007398
C 7.981958 5.075460 1.954184
C 7.937472 3.633800 1.897745
C 6.758659 7.187366 1.987365
C 4.112755 5.824475 2.446007
C 5.482487 3.440907 2.437478
N 6.864533 5.832259 2.305625
N 3.023250 7.907057 1.803659
N 4.234491 1.427494 1.892804
Tc 5.528079 5.045817 3.458644
