32
Title                                   
C -0.000821 1.781503 5.608385
C 1.235790 2.494810 5.681811
C 1.235707 3.905290 5.887842
C 0.003315 6.002702 6.319042
C -0.003198 4.608167 6.005873
C -0.009522 10.405823 6.335383
C 1.235646 12.496103 5.914444
C 0.000365 14.628750 5.622251
C 1.235785 15.346176 5.572332
C 1.235641 16.768480 5.525278
C 0.000022 13.212262 5.783817
C 2.472365 1.781499 5.608311
C 3.707780 2.493202 5.673579
C 3.707705 3.909669 5.867071
C 2.472425 0.356419 5.529972
C 2.467536 6.002686 6.319109
C 3.707344 6.746341 6.451359
C 3.706972 8.220792 6.565621
C 2.474490 4.608212 6.005853
C 2.480333 10.405780 6.336630
C 3.707572 12.511231 5.876042
C 2.471111 14.628701 5.622242
C 3.707743 15.341013 5.565407
C 3.707642 16.770742 5.520440
C 2.471242 13.212286 5.783873
C 3.707348 11.106306 6.135894
C 1.235569 11.108584 6.208264
C -0.001151 0.356412 5.530025
C 2.556733 9.031817 6.675045
C 4.857565 9.031740 6.673088
N 1.235429 6.602099 6.529821
Rh 1.234851 8.171728 7.717195
