32
Title                                   
C 0.557504 0.781067 1.637822
C 9.188973 1.483251 1.684686
C 0.551502 7.901810 1.634008
C 9.180522 2.905416 1.770124
C 0.558475 5.037068 1.702312
C 9.203848 5.753140 1.758428
C 0.560580 3.617733 1.738614
C 9.195007 7.179355 1.697914
C 3.016985 0.771684 1.707869
C 1.793850 1.492706 1.682610
C 3.004804 7.902298 1.756698
C 1.810439 2.921523 1.762979
C 2.995441 5.076351 1.969648
C 1.780129 5.763517 1.738641
C 3.054222 3.634124 1.930422
C 1.776243 7.190019 1.696788
C 5.484186 0.725024 1.874972
C 4.256907 1.455821 1.819604
C 5.480175 7.862376 1.995192
C 4.277973 2.856531 1.993366
C 4.203867 7.190414 2.007592
C 7.965117 0.761450 1.718010
C 6.725023 1.442232 1.839963
C 7.964361 7.891146 1.764371
C 6.719517 2.842850 2.022307
C 7.997848 5.046429 2.027052
C 6.866077 5.823148 2.384337
C 7.949156 3.606653 1.963825
C 6.756384 7.190900 2.036210
N 4.096156 5.847826 2.307572
N 5.496734 3.430964 2.312432
Os 5.465759 5.026363 3.377128
