31
Title                                   
C 0.549033 0.766147 1.877306
C 9.184287 1.476328 1.778491
C 0.548884 7.888525 1.877142
C 9.204015 2.894510 1.820072
C 0.549996 5.040977 1.932228
C 9.203984 5.759793 1.819574
C 0.549892 3.613594 1.932471
C 9.184291 7.178048 1.777947
C 3.026822 0.776243 2.011026
C 1.775419 1.471041 1.980991
C 3.026786 7.878283 2.010675
C 1.772903 2.900770 2.009512
C 2.990839 5.044126 2.118877
C 1.772925 5.753963 2.009222
C 2.990656 3.610547 2.119055
C 1.775523 7.183681 1.980774
C 5.451053 0.778965 1.843229
C 4.240269 1.535544 2.026411
C 5.451011 7.875000 1.842561
C 4.240376 7.118805 2.025547
C 7.943175 0.763523 1.677284
C 6.700241 1.464578 1.649332
C 7.943041 7.890468 1.676802
C 6.751265 2.875733 1.582642
C 7.974853 5.053846 1.664124
C 6.751139 5.778016 1.583087
C 7.975001 3.600283 1.664177
C 6.699994 7.189558 1.648611
N 4.208948 2.948215 2.189767
N 4.209202 5.706277 2.189094
W 5.795550 4.326656 2.501268
