32
Title                                   
C 0.002570 1.786820 5.575230
C 1.237156 2.500199 5.676860
C 1.237283 3.909807 5.939019
C -0.010806 5.987781 6.460700
C -0.009003 4.601170 6.083403
C -0.014203 10.409159 6.295918
C 1.235508 12.497461 5.822447
C 0.001102 14.629293 5.512488
C 1.235927 15.345738 5.468021
C 1.236327 16.773897 5.441008
C 0.001252 13.209388 5.678722
C 2.471400 1.786459 5.575683
C 3.709103 2.492486 5.661608
C 3.709316 3.897457 5.911892
C 2.471679 0.360999 5.460943
C 2.484679 5.987110 6.462466
C 3.708671 6.747049 6.593483
C 3.706799 8.230853 6.687281
C 2.483563 4.601233 6.083768
C 2.484233 10.409103 6.304258
C 3.707137 12.507160 5.777994
C 2.470561 14.629651 5.513222
C 3.708071 15.343395 5.461464
C 3.708487 16.775045 5.437439
C 2.469670 13.210139 5.680360
C 3.706497 11.107750 6.060911
C 1.235358 11.108163 6.159193
C 0.001237 0.361185 5.460618
C 2.520030 9.041884 6.708591
C 4.892912 9.039093 6.682013
C 1.236989 6.579715 6.742917
Zr 1.217829 8.180682 8.071381
