32
Title                                   
C 0.560215 0.782188 1.724027
C 9.191969 1.494488 1.717061
C 0.578972 7.904725 1.731794
C 9.166624 2.931233 1.719390
C 0.573349 5.051276 1.759916
C 9.211055 5.763170 1.720621
C 0.560958 3.619180 1.770033
C 9.215598 7.184861 1.726232
C 3.027718 0.738724 1.823933
C 1.813104 1.476110 1.768645
C 1.810761 2.907911 1.831770
C 3.027737 5.040498 2.155438
C 1.813512 5.760865 1.862688
C 3.048246 3.606249 2.006764
C 1.806306 7.187134 1.808581
C 5.495318 0.709513 1.898641
C 5.490123 7.858686 2.044802
C 4.298637 2.852834 1.917674
C 4.226168 7.162357 2.219222
C 7.960368 0.762467 1.746161
C 6.709793 1.450254 1.776622
C 7.976937 7.897233 1.766194
C 6.667701 2.876641 1.749460
C 7.936441 5.097046 1.741515
C 7.904459 3.637798 1.716238
C 6.763661 7.146121 1.886467
C 4.122688 5.832707 2.600205
N 5.450628 3.485808 1.829446
N 6.786459 5.798039 1.855355
N 3.030714 7.894745 1.857074
N 4.246764 1.412607 1.895018
Ag 5.460781 5.087721 4.086513
