25
Title                                   
C 7.790789 1.762251 1.908981
C 7.771977 4.289955 1.906214
C 7.790957 6.817391 1.909318
C 1.687248 0.713602 1.909559
C 0.638611 1.762054 1.909189
C 1.687243 7.865735 1.909704
C 1.345918 5.544601 1.907136
C 0.657606 4.289858 1.906629
C 1.345783 3.034876 1.906921
C 0.638703 6.817246 1.909484
C 4.214559 0.732617 1.907186
C 2.959815 1.420858 1.907299
C 4.214615 7.847013 1.907339
C 2.959816 7.158840 1.907488
C 6.742130 0.713822 1.909240
C 5.469365 1.420922 1.906778
C 6.742325 7.865897 1.909361
C 7.083771 5.544828 1.906467
C 7.083784 3.035010 1.906155
C 5.469521 7.158799 1.906846
C 2.773877 2.848784 1.904739
C 2.773958 5.731016 1.905136
C 5.655960 2.848829 1.903938
C 5.655984 5.731027 1.904122
Rh 4.216222 4.290182 1.898870
