31
Title                                   
C 0.007212 1.810033 5.954502
C 1.237627 2.542335 5.969958
C 1.237673 3.993571 6.003796
C -0.012909 4.692754 6.018600
C -0.013033 10.294236 6.024149
C 1.237682 12.444872 5.975974
C 0.004456 14.615625 5.939547
C 1.237602 15.338963 5.933805
C 1.237564 16.777734 5.931573
C 0.007239 13.177018 5.959981
C 2.467958 1.809917 5.954488
C 3.709579 2.524844 5.966703
C 3.709635 3.950335 5.998271
C 2.470438 0.371732 5.935966
C 3.709793 6.748711 6.051217
C 3.709794 8.238190 6.052880
C 2.488300 4.692916 6.018488
C 2.488404 10.294241 6.024153
C 3.709503 12.462150 5.972748
C 2.470467 14.615485 5.939538
C 3.709390 15.339179 5.933318
C 3.709305 16.777452 5.931087
C 2.467907 13.177150 5.959907
C 3.709607 11.036717 6.003662
C 1.237706 10.993549 6.009425
C 0.004395 0.371573 5.935998
N 2.536198 8.919797 6.054169
N 4.883469 8.919705 6.053923
N 2.536178 6.067014 6.049811
N -0.060673 6.067010 6.049776
Cr 1.238029 7.493341 6.093786
