32
Title                                   
C 0.552584 0.790734 1.739425
C 9.175746 1.504930 1.766495
C 0.559735 7.902364 1.705939
C 9.164810 2.926557 1.798132
C 0.558380 5.046445 1.725339
C 9.197728 5.747538 1.709441
C 0.549947 3.621087 1.806466
C 9.194740 7.181608 1.710824
C 3.016491 0.754877 1.816958
C 1.798924 1.493492 1.800373
C 3.031471 7.887519 1.816770
C 1.803823 2.911988 1.872511
C 3.024951 5.061335 2.053579
C 1.794201 5.739705 1.775690
C 1.797478 7.173948 1.750014
C 5.497432 0.723421 1.936226
C 4.255485 1.441736 1.903016
C 4.297300 2.864107 1.959167
C 4.231742 7.155581 2.077891
C 7.963690 0.764608 1.785552
C 6.719566 1.452565 1.853924
C 7.962304 7.902381 1.776506
C 6.662506 2.876604 1.871149
C 7.937367 5.089925 1.818128
C 6.761294 7.149612 1.919337
C 4.151249 5.804856 2.440873
N 5.479222 3.517961 1.998967
N 6.804012 5.803344 1.997065
N 5.502886 7.851609 2.032339
N 3.051891 3.613036 2.008592
N 7.893299 3.643321 1.830506
Zn 5.541511 5.012398 3.656307
