31
Title                                   
C 0.006711 1.812569 5.825397
C 1.238210 2.537778 5.866476
C 1.237331 3.982067 5.979007
C -0.007592 4.680234 6.033962
C 0.000381 10.313340 6.058632
C 1.237805 12.465773 5.872559
C 0.003347 14.625665 5.784316
C 1.238933 15.346429 5.775010
C 1.239094 16.782448 5.774860
C 0.002729 13.189932 5.828844
C 2.470208 1.812668 5.825365
C 3.710325 2.526008 5.853080
C 3.709455 3.953482 5.947517
C 2.473001 0.375423 5.782791
C 3.708396 6.710011 6.258744
C 3.708045 8.185140 6.297440
C 2.481825 4.679964 6.034212
C 2.472875 10.313396 6.058659
C 3.709838 12.471085 5.858822
C 2.474229 14.625554 5.784354
C 3.710960 15.347012 5.771820
C 3.711161 16.785540 5.771543
C 2.473382 13.189962 5.828989
C 3.708937 11.037663 5.959048
C 1.236840 11.038879 5.995640
C 0.005142 0.375297 5.782875
C 2.482288 8.902997 6.265759
C 4.933929 8.902909 6.265373
N 2.515503 6.051901 6.204930
N -0.042542 6.052281 6.203861
Hf 1.235749 7.484743 7.151316
