25
Title                                   
C 7.783205 1.746048 1.909450
C 7.755301 4.290030 1.906259
C 7.783342 6.833720 1.909684
C 1.671016 0.721261 1.910010
C 0.646364 1.745856 1.909638
C 1.671102 7.858143 1.910091
C 1.346774 5.565034 1.906865
C 0.674512 4.289794 1.906591
C 1.346645 3.014410 1.906636
C 0.646494 6.833563 1.909833
C 4.214543 0.749468 1.907084
C 2.939468 1.421720 1.907087
C 4.214582 7.830306 1.907221
C 2.939630 7.157797 1.907209
C 6.758516 0.721498 1.909652
C 5.489759 1.421969 1.906478
C 6.758607 7.858390 1.909764
C 7.083025 5.565290 1.906427
C 7.082980 3.014724 1.905990
C 5.489873 7.157982 1.906649
N 2.708769 2.783525 1.903622
N 2.708878 5.795823 1.903761
N 5.721039 2.783783 1.902877
N 5.721105 5.796054 1.903218
Ag 4.215009 4.289825 1.902001
