32
Title                                   
C 0.555115 0.766950 1.677299
C 9.188317 1.478133 1.717073
C 0.554957 7.891060 1.684595
C 9.183671 2.909992 1.776278
C 0.554953 5.037529 1.742736
C 9.191142 5.750501 1.786260
C 0.554932 3.618122 1.750146
C 9.186959 7.177485 1.735002
C 3.014205 0.764106 1.754901
C 1.791195 1.478197 1.716951
C 3.026259 7.894153 1.771942
C 1.795769 2.910038 1.776070
C 3.009272 5.050894 1.982708
C 1.788306 5.750479 1.786149
C 3.020568 3.611503 1.942391
C 1.792435 7.177502 1.735347
C 5.489856 0.743743 1.892777
C 4.254623 1.452296 1.873202
C 4.253316 2.869054 2.027058
C 4.195381 5.810941 2.246834
C 5.489860 3.508779 2.282195
C 4.253416 7.192137 1.962540
C 7.965326 0.763979 1.754703
C 6.725248 1.452319 1.873211
C 7.953064 7.894116 1.771703
C 6.726347 2.869114 2.026969
C 7.970362 5.050999 1.983126
C 6.784353 5.811127 2.246805
C 7.959014 3.611589 1.942606
C 6.725881 7.192217 1.962252
N 5.489695 7.889684 1.941522
Fe 5.489969 5.032454 3.190148
