25
Title                                   
C 7.773227 1.773811 1.908418
C 7.728164 4.301307 1.906081
C 7.779933 6.829692 1.909301
C 1.704216 0.721644 1.909593
C 0.646756 1.778849 1.908863
C 1.699195 7.848069 1.909564
C 1.344235 5.556276 1.906697
C 0.645189 4.294815 1.906458
C 1.338170 3.052613 1.907118
C 0.661434 6.814829 1.909255
C 4.219490 0.720533 1.907222
C 2.977476 1.413635 1.907821
C 4.226139 7.803415 1.907001
C 2.962744 7.125660 1.907001
C 6.739790 0.736257 1.908992
C 5.481048 1.419267 1.906420
C 6.754866 7.854819 1.909296
C 7.065075 5.567626 1.906188
C 7.050732 3.037586 1.905894
C 5.492434 7.140071 1.906377
C 2.798731 2.874041 1.905806
N 2.751974 5.728334 1.904377
N 5.653161 2.826595 1.903796
N 5.689875 5.764889 1.903580
Ir 4.186483 4.261381 1.902980
