31
Title                                   
C 0.006133 1.808586 5.865519
C 1.237793 2.535990 5.895334
C 1.237151 3.986291 5.975755
C -0.008617 4.689139 6.009309
C 0.006866 10.311438 6.004063
C 1.237249 12.455516 5.897496
C 0.007732 14.615306 5.848326
C 1.238080 15.338410 5.845630
C 1.238402 16.779456 5.842322
C 0.007740 13.174663 5.866982
C 2.469957 1.808757 5.865320
C 3.710078 2.525489 5.874901
C 3.709512 3.953860 5.932504
C 2.472442 0.369416 5.843861
C 3.708696 6.738665 6.143237
C 3.708597 8.200853 6.169796
C 2.482968 4.688375 6.008351
C 2.467408 10.312352 6.003564
C 3.709687 12.463229 5.867632
C 2.468203 14.615163 5.848301
C 3.710151 15.335608 5.841220
C 3.710530 16.773930 5.838703
C 2.467397 13.174373 5.866923
C 3.709452 11.049009 5.912888
C 0.004507 0.369394 5.844092
C 2.467873 8.920822 6.181065
C 0.006131 8.919758 6.182997
N 2.516363 6.061179 6.138292
N -0.042644 6.061885 6.141345
N 1.237060 11.040312 5.969297
Zr 1.239520 7.480926 7.176175
