32
Title                                   
C 0.552563 0.786477 1.717866
C 9.183698 1.503290 1.770338
C 0.568681 7.900277 1.703600
C 9.159926 2.932144 1.862800
C 0.549617 5.043867 1.783039
C 9.201554 5.764347 1.803907
C 0.553164 3.620265 1.833861
C 9.204411 7.196616 1.740579
C 3.010679 0.745062 1.733522
C 1.796193 1.488297 1.748268
C 3.038188 7.880860 1.768831
C 1.794512 2.904578 1.832004
C 3.020948 5.028758 1.974513
C 1.795547 5.734211 1.792250
C 1.803212 7.163513 1.744200
C 5.488711 0.723748 1.873544
C 4.248061 1.427987 1.821793
C 4.254859 2.832911 1.984821
C 4.253956 7.162390 1.960269
C 7.964682 0.783203 1.756987
C 6.711364 1.455153 1.868507
C 7.974383 7.920574 1.752259
C 6.667708 2.858707 2.049548
C 7.961014 5.098896 2.014431
C 7.897346 3.650692 2.007070
C 6.767451 7.202742 1.940671
C 4.188899 5.781885 2.267194
N 5.419840 3.440172 2.310095
N 6.837789 5.890715 2.262406
N 5.508857 7.862293 1.924982
N 3.038062 3.596581 1.937235
Fe 5.517890 5.029979 3.172112
