32
Title                                   
C 0.555093 0.764849 1.680666
C 9.192100 1.474941 1.721349
C 0.555062 7.890895 1.678779
C 9.190050 2.901339 1.778289
C 0.554921 5.032805 1.729825
C 9.198984 5.752751 1.768912
C 0.554960 3.612172 1.746365
C 9.192942 7.176900 1.730882
C 3.016909 0.766257 1.762230
C 1.787670 1.474875 1.720987
C 3.013583 7.893345 1.786661
C 1.789339 2.901300 1.777635
C 3.002030 5.034575 1.960074
C 1.780438 5.752677 1.767629
C 3.007665 3.604042 1.928816
C 1.786604 7.176815 1.729701
C 5.489827 0.758513 1.891107
C 4.251259 1.466322 1.865151
C 5.489687 7.896944 1.961095
C 4.243252 2.884583 2.010090
C 4.141839 5.812873 2.197634
C 5.489759 3.481703 2.250331
C 4.245860 7.191318 1.979997
C 7.962790 0.766298 1.762869
C 6.728470 1.466333 1.865322
C 7.966100 7.893522 1.788017
C 6.736344 2.884591 2.010411
C 7.977527 5.034610 1.961768
C 6.838076 5.813177 2.199420
C 7.971829 3.604158 1.930043
C 6.733659 7.191448 1.980960
Pd 5.489135 5.054260 3.390487
