31
Title                                   
C -0.009669 1.782063 5.941282
C 1.220995 2.513114 5.958021
C 1.218096 3.939073 6.000606
C -0.032333 4.655275 6.016312
C 0.009948 10.361362 5.994956
C 1.244188 12.464542 5.969055
C 0.005855 14.621488 5.941313
C 1.235171 15.342803 5.940868
C 1.230901 16.768645 5.936323
C 0.008824 13.189421 5.951534
C 2.460485 1.786224 5.942254
C 3.699341 2.490210 5.945845
C 3.691620 3.917116 5.977341
C 2.464925 0.357024 5.934592
C 3.731156 6.727760 6.037332
C 3.746811 8.250613 6.029712
C 2.466292 4.644486 6.012123
C 2.486953 10.342530 6.028949
C 3.713120 12.495703 5.956230
C 2.467510 14.622516 5.943730
C 3.707587 15.333522 5.936209
C 3.702527 16.767615 5.932013
C 2.473875 13.192740 5.956559
C 3.715763 11.081096 5.979793
C -0.006001 0.353807 5.933807
C 2.526478 8.941150 6.104147
C -0.008985 8.970960 6.022639
C 2.534917 6.045472 6.071193
N -0.067377 6.018554 6.061267
N 1.248405 11.072226 6.002809
Pd 1.255040 7.509040 6.242388
