32
Title                                   
C 0.548690 0.768516 1.706401
C 9.188701 1.491847 1.713944
C 0.566141 7.884161 1.720877
C 9.183648 2.917863 1.750034
C 0.555211 5.052010 1.755642
C 0.546809 3.622392 1.750143
C 9.208319 7.177922 1.751533
C 3.019333 0.751632 1.787221
C 1.791464 1.470418 1.748593
C 1.782816 2.898859 1.794422
C 2.987995 5.022239 2.037289
C 1.777759 5.758090 1.827807
C 3.013267 3.591607 1.979983
C 1.802069 7.187154 1.780500
C 5.489721 0.748854 1.854616
C 5.487014 7.869493 1.956298
C 4.236117 2.842170 2.064821
C 4.223289 7.179038 2.053669
C 7.956146 0.762759 1.735008
C 6.711616 1.466677 1.812064
C 7.974175 7.894233 1.779604
C 6.722489 2.896639 1.978652
C 7.992879 5.080798 1.940805
C 7.944692 3.644808 1.889663
C 6.751325 7.191505 1.959992
C 4.134147 5.813261 2.321154
C 5.466953 3.470594 2.287380
N 6.869198 5.823424 2.212347
N 3.021375 7.904785 1.816991
N 4.234687 1.426918 1.865978
N 9.199982 5.756633 1.770677
Cr 5.545739 5.043894 3.309394
