31
Title                                   
C 0.000768 1.779107 5.738851
C 1.237312 2.498924 5.823323
C 1.237481 3.902636 6.027652
C -0.005242 4.622578 6.119793
C -0.003256 10.363285 6.123785
C 1.238907 12.489650 5.842804
C 0.001864 14.631040 5.666222
C 1.237982 15.348138 5.643360
C 1.237475 16.769384 5.635550
C 0.002287 13.209621 5.760351
C 2.473788 1.778954 5.740754
C 3.709360 2.486308 5.799503
C 3.709286 3.901072 5.988081
C 2.473973 0.356962 5.652156
C 3.708329 6.744468 6.344147
C 3.709277 8.239855 6.342479
C 2.480560 4.620970 6.130680
C 2.482109 10.365774 6.136602
C 3.710975 12.502310 5.820650
C 2.474640 14.631198 5.667090
C 3.710239 15.344563 5.638070
C 3.709815 16.773252 5.629662
C 2.475365 13.209673 5.762707
C 3.711089 11.086064 6.000589
C 1.239207 11.084320 6.036446
C 0.001315 0.357254 5.651454
C 2.502064 8.972856 6.362694
C 4.919773 8.967055 6.326942
C 2.500452 6.012838 6.363452
C -0.026193 6.017214 6.332134
Y 1.225493 7.490826 7.593219
