31
Title                                   
C 0.005226 1.831646 5.955967
C 1.240626 2.565685 5.969677
C 1.242234 4.018728 5.999047
C -0.003717 4.719410 6.013648
C -0.008863 10.249913 6.026213
C 1.226115 12.429767 5.984595
C -0.002925 14.610107 5.947201
C 1.233893 15.337060 5.939598
C 1.235225 16.782465 5.934827
C -0.005026 13.165697 5.970446
C 2.470640 1.828336 5.955509
C 3.709005 2.549191 5.968253
C 3.709967 3.991772 5.997340
C 2.470331 0.381875 5.937974
C 3.735310 6.736997 6.049439
C 3.728216 8.210935 6.052427
C 2.485297 4.739513 6.013962
C 2.460526 10.269040 6.023466
C 3.705701 12.438159 5.983884
C 2.468003 14.607167 5.946943
C 3.705190 15.336655 5.939420
C 3.707308 16.785584 5.934539
C 2.466660 13.159376 5.970060
C 3.700269 10.989391 6.010935
C 1.227054 10.990042 6.012155
C 0.002048 0.383264 5.938055
C 2.503900 8.842423 6.043873
N 4.924130 8.867037 6.048224
N 2.537301 6.125153 6.040748
N -0.039258 6.101454 6.041844
Ni 1.246111 7.514305 6.050932
