32
Title                                   
C 0.555561 0.795420 1.810784
C 9.178489 1.500895 1.829228
C 0.555419 7.902300 1.801719
C 9.173429 2.922230 1.855069
C 0.555158 5.046394 1.800145
C 9.195602 5.743278 1.820975
C 0.555328 3.619201 1.837514
C 9.191742 7.179626 1.818318
C 3.017366 0.762888 1.809223
C 1.802175 1.500819 1.818920
C 3.023171 7.895000 1.816172
C 1.806733 2.921788 1.844181
C 3.035503 5.074379 1.884189
C 1.784719 5.743214 1.807786
C 1.788832 7.179778 1.805968
C 5.489954 0.723265 1.888850
C 4.259824 1.447687 1.863579
C 4.298856 2.868755 1.923411
C 4.225493 7.145358 1.896397
C 7.963345 0.763135 1.822792
C 6.720163 1.447750 1.872388
C 7.957811 7.895087 1.832084
C 6.681287 2.869106 1.933797
C 7.945078 5.074722 1.905043
C 6.754910 7.145639 1.909214
N 4.189775 5.787501 2.016660
N 5.489374 3.524059 2.069940
N 6.791992 5.788478 2.039922
N 5.490210 7.826859 1.893500
N 3.076690 3.631281 1.873510
N 7.904221 3.631677 1.891689
Re 5.475552 5.053617 3.720533
