32
Title                                   
C 0.550007 0.762400 1.632327
C 9.189068 1.483530 1.639858
C 0.565691 7.882684 1.671554
C 9.186601 2.909366 1.680150
C 0.557517 5.050419 1.697107
C 0.553345 3.622663 1.670099
C 9.201903 7.166491 1.725830
C 3.014283 0.759657 1.734530
C 1.794223 1.472671 1.670526
C 1.791635 2.904958 1.705981
C 2.987777 5.030697 2.027018
C 1.788403 5.758820 1.783469
C 3.024995 3.598047 1.934620
C 1.803311 7.190342 1.746352
C 5.483355 0.758167 1.833906
C 5.473079 7.892821 1.982313
C 4.235436 2.836832 2.061437
C 4.212474 7.205734 2.084793
C 7.960508 0.759495 1.688842
C 6.719158 1.470546 1.787478
C 7.963269 7.886828 1.768255
C 6.739451 2.880765 1.993655
C 8.011026 5.061493 2.023450
C 7.962376 3.626457 1.895921
C 6.738319 7.207537 2.029861
C 4.108342 5.832533 2.445543
C 5.483914 3.444717 2.414957
C 6.870491 5.828603 2.421186
N 3.024510 7.909032 1.805092
N 4.235422 1.447416 1.841826
N 9.206153 5.748370 1.765549
W 5.497722 5.021100 3.550016
