25
Title                                   
C 7.784084 1.769808 1.908832
C 7.762683 4.291449 1.905916
C 7.791849 6.828198 1.909004
C 1.676643 0.712943 1.909291
C 0.637857 1.751389 1.908911
C 1.695100 7.859269 1.909681
C 1.348234 5.537469 1.907725
C 0.667211 4.288327 1.906385
C 1.354500 3.016533 1.906168
C 0.645522 6.809882 1.909433
C 4.213070 0.742057 1.906855
C 2.941632 1.429615 1.906630
C 4.216066 7.837585 1.906971
C 2.967244 7.156454 1.907909
C 6.734457 0.720420 1.909217
C 5.462006 1.423350 1.906995
C 6.753077 7.866659 1.909062
C 7.075279 5.563091 1.906001
C 7.081330 3.042337 1.906342
C 5.487725 7.150005 1.906273
C 2.770396 5.734394 1.906498
C 5.659227 2.845336 1.904780
N 2.728535 2.803307 1.903680
N 5.701429 5.776227 1.903245
Pd 4.215384 4.289909 1.902297
