31
Title                                   
C 0.007862 1.791835 5.950659
C 1.237592 2.521151 5.964880
C 1.237503 3.965956 5.998992
C -0.014922 4.659956 6.015968
C 0.004498 10.341803 6.029112
C 1.237797 12.474737 5.982044
C 0.008060 14.623195 5.944732
C 1.237471 15.341141 5.936679
C 1.237506 16.774037 5.931254
C 0.009163 13.190568 5.967455
C 2.467456 1.792024 5.950745
C 3.709761 2.500732 5.963445
C 3.709490 3.916722 5.996148
C 2.469967 0.360898 5.934647
C 3.709439 6.712036 6.056358
C 3.709470 8.197750 6.059529
C 2.489894 4.660109 6.016048
C 2.471053 10.341782 6.029100
C 3.709857 12.485144 5.982874
C 2.467004 14.623046 5.944579
C 3.709689 15.339640 5.938312
C 3.709799 16.769580 5.932729
C 2.466375 13.190303 5.967305
C 3.709730 11.078012 6.015823
C 0.005284 0.361041 5.934485
C 2.518653 8.957607 6.050048
C 4.900555 8.957578 6.050425
N 2.555214 6.019333 6.048408
N -0.080239 6.019519 6.048349
N 1.237794 11.063311 6.012142
Ag 1.237720 7.527601 6.047925
