32
Title                                   
C 0.555182 0.782347 1.661715
C 9.181799 1.488459 1.723854
C 0.555176 7.892757 1.624127
C 9.180873 2.911252 1.821696
C 0.554808 5.045021 1.691829
C 9.192464 5.741748 1.715765
C 0.554737 3.617645 1.782367
C 9.186687 7.174777 1.666926
C 3.017547 0.760984 1.715456
C 1.798165 1.488280 1.718392
C 3.030423 7.896286 1.719552
C 1.798255 2.911111 1.816074
C 3.003156 5.046449 1.974173
C 1.787054 5.741522 1.706631
C 1.793319 7.174536 1.658796
C 5.490152 0.743887 1.883435
C 4.252268 1.459276 1.849332
C 4.257121 2.863408 2.051669
C 4.236292 7.186356 1.978152
C 7.962894 0.761107 1.724287
C 6.728167 1.459473 1.855724
C 7.950093 7.896593 1.729853
C 6.722609 2.863551 2.058093
C 7.976962 5.046985 1.987447
C 6.744175 7.186731 1.987253
C 4.135040 5.816089 2.370979
C 5.488857 3.480756 2.434767
C 6.844508 5.816799 2.382069
N 5.490076 7.875855 1.975063
N 3.020142 3.610456 1.975481
N 7.959368 3.610667 1.985286
Os 5.485395 5.060023 3.487258
