32
Title                                   
C 0.553758 0.770810 1.744258
C 9.187752 1.489270 1.725914
C 0.569149 7.882233 1.781615
C 9.163333 2.923300 1.746690
C 0.560454 5.048647 1.829775
C 0.544823 3.621181 1.807376
C 9.216513 7.169907 1.801719
C 3.028615 0.739613 1.814087
C 1.802616 1.467040 1.766340
C 1.802402 2.901898 1.815550
C 3.025091 5.014237 2.121407
C 1.800683 5.754536 1.916655
C 3.046482 3.595478 1.929268
C 1.811428 7.179578 1.859196
C 5.497617 0.720531 1.859614
C 5.493924 7.863164 2.035556
C 4.297689 2.847441 1.789754
C 4.228328 7.165711 2.178166
C 7.959608 0.756580 1.747678
C 6.708393 1.455466 1.751656
C 7.972197 7.885057 1.811737
C 6.667804 2.889648 1.688263
C 7.947762 5.087896 1.867086
C 7.907880 3.642889 1.741459
C 6.755929 7.170346 1.979664
C 4.131400 5.823022 2.559895
N 5.440507 3.492907 1.655394
N 6.823894 5.796307 2.086707
N 3.026053 7.883651 1.873412
N 4.246091 1.412234 1.842083
N 9.208175 5.755202 1.818135
Pt 5.507413 5.205410 3.767389
