25
Title                                   
C 7.779903 1.747217 1.908939
C 7.722582 4.289909 1.905674
C 7.779879 6.832455 1.909150
C 1.690269 0.713005 1.909323
C 0.638919 1.763880 1.909009
C 1.690286 7.866593 1.909556
C 1.325682 5.543719 1.907397
C 0.622631 4.289929 1.906488
C 1.325649 3.036057 1.907225
C 0.638873 6.815720 1.909312
C 4.231849 0.742811 1.907078
C 2.973548 1.428187 1.907575
C 4.231898 7.836816 1.907087
C 2.973562 7.151491 1.907888
C 6.751643 0.728542 1.909283
C 5.500868 1.423357 1.906287
C 6.751660 7.851195 1.909314
C 7.054480 5.559460 1.905989
C 7.054542 3.020241 1.905698
C 5.500981 7.156365 1.906395
C 2.764105 2.851799 1.905868
C 2.764100 5.727848 1.906222
N 5.694051 2.813770 1.902976
N 5.694075 5.765826 1.903281
Cr 4.214504 4.289822 1.901086
