32
Title                                   
C 0.552038 0.785239 1.710858
C 9.189989 1.492862 1.717966
C 0.562937 7.897004 1.701725
C 9.180608 2.921219 1.775344
C 0.560444 5.057000 1.752569
C 0.556705 3.626313 1.784507
C 9.206398 7.179170 1.722959
C 3.019772 0.764162 1.794301
C 1.799207 1.493101 1.775117
C 1.808131 2.922053 1.838749
C 2.992049 5.070608 2.046023
C 1.775588 5.769707 1.795258
C 3.065465 3.622101 2.010790
C 1.790082 7.202346 1.756618
C 5.486825 0.717828 1.868322
C 5.470119 7.837440 1.990103
C 4.278191 2.838548 2.066778
C 4.189056 7.178855 2.080955
C 7.960866 0.754549 1.712964
C 6.711466 1.436143 1.790384
C 7.976032 7.884492 1.750548
C 6.707726 2.857638 1.962608
C 7.992864 5.081443 1.960020
C 7.928590 3.632661 1.903267
C 6.758703 7.167305 1.969141
N 4.051242 5.879138 2.391554
N 5.490207 3.398339 2.288411
N 6.899197 5.823027 2.213616
N 3.006319 7.917573 1.800734
N 4.244619 1.420168 1.870118
N 9.212170 5.751189 1.752040
Ni 5.510158 5.031968 3.159152
