32
Title                                   
C 0.540581 0.774787 1.750334
C 9.171652 1.469695 1.775760
C 0.525272 7.895211 1.774548
C 9.170171 2.901961 1.812408
C 0.536449 5.034985 1.765502
C 9.171528 5.740968 1.870042
C 0.551377 3.615830 1.768516
C 9.172204 7.168848 1.862021
C 3.003347 0.772070 1.760469
C 1.783383 1.492485 1.732686
C 2.982597 7.897975 1.774089
C 1.815481 2.928587 1.725653
C 3.034390 5.095181 1.739780
C 1.765056 5.761169 1.738024
C 3.066473 3.640363 1.713268
C 1.757409 7.183482 1.749974
C 5.469593 0.715672 1.858415
C 4.251581 1.456635 1.778848
C 5.455918 7.845174 1.971132
C 4.317333 2.887464 1.739938
C 4.188679 7.144698 1.853244
C 7.944617 0.740935 1.833983
C 6.706024 1.429792 1.855208
C 7.937134 7.867777 1.907186
C 6.673658 2.852679 1.851894
C 7.947716 5.020846 2.086064
C 6.827176 5.793042 2.502574
C 7.931112 3.595318 1.934266
C 6.702563 7.157465 2.119663
N 4.184181 5.804215 1.807243
N 5.514916 3.527063 1.766184
Au 5.834190 5.198819 4.134586
