32
Title                                   
C 0.553954 0.784547 1.671852
C 9.184088 1.496760 1.731776
C 0.563611 7.899016 1.662475
C 9.166455 2.923408 1.814980
C 0.550414 5.041080 1.741581
C 9.199663 5.759318 1.773471
C 0.558980 3.617063 1.797983
C 9.199519 7.192615 1.716612
C 3.015732 0.754994 1.697736
C 1.797960 1.489305 1.708824
C 3.034056 7.887385 1.734550
C 1.794779 2.903714 1.814045
C 3.009630 5.038212 1.989545
C 1.791892 5.736284 1.761395
C 1.800818 7.168882 1.705409
C 5.488850 0.730903 1.915357
C 4.250981 1.440645 1.837260
C 4.254549 2.847476 2.003200
C 4.237613 7.168769 1.978028
C 7.962010 0.773130 1.744295
C 6.714717 1.452016 1.882785
C 7.965996 7.910118 1.749561
C 6.688583 2.854236 2.037399
C 7.971164 5.084959 1.986823
C 7.908214 3.640689 1.961207
C 6.751413 7.197640 1.958165
C 4.147405 5.811059 2.371159
N 5.444765 3.441001 2.341624
N 6.845735 5.870688 2.281636
N 5.504796 7.865012 1.966528
N 3.043233 3.601644 1.950319
Os 5.532187 5.028622 3.425921
