32
Title                                   
C 0.549868 0.774033 1.609279
C 9.190531 1.478814 1.660015
C 0.563154 7.896942 1.595639
C 9.186356 2.909934 1.753752
C 0.560973 5.043716 1.667011
C 9.202258 5.749799 1.705410
C 0.561652 3.617089 1.709879
C 9.197552 7.174996 1.644250
C 3.012610 0.755483 1.707552
C 1.790716 1.474158 1.667475
C 1.801580 2.906305 1.751347
C 2.997587 5.056269 2.005531
C 1.796403 5.761727 1.708679
C 3.018958 3.613895 1.967127
C 1.794491 7.188004 1.654139
C 5.487982 0.740524 1.838133
C 4.246261 1.450449 1.828025
C 5.474604 7.882079 1.964490
C 4.254047 2.863190 2.051494
C 4.126121 5.833460 2.369472
C 5.488737 3.493350 2.352970
C 4.203935 7.190630 2.034552
C 7.959306 0.758578 1.682833
C 6.726139 1.458534 1.806104
C 7.959494 7.887786 1.705109
C 6.718273 2.865645 2.036968
C 7.985432 5.052155 1.983742
C 6.828353 5.802147 2.298477
C 7.967117 3.607813 1.960695
C 6.740502 7.173290 1.977736
N 3.010720 7.901762 1.721091
Y 5.532051 5.048635 3.894525
