32
Title                                   
C 0.548868 0.765354 1.654503
C 9.191780 1.484033 1.671117
C 0.562539 7.884030 1.658490
C 9.189138 2.913259 1.718109
C 0.557273 5.053265 1.676575
C 0.550990 3.626570 1.693001
C 9.203638 7.170360 1.698235
C 3.017252 0.754217 1.769402
C 1.792681 1.472703 1.707408
C 1.788006 2.902113 1.748382
C 2.980410 5.023735 2.006420
C 1.781194 5.765774 1.751428
C 3.009693 3.598171 1.949226
C 1.800310 7.187161 1.721313
C 5.487667 0.752857 1.881938
C 5.479236 7.889699 2.027124
C 4.233062 2.848091 2.060717
C 4.216741 7.191803 2.101736
C 7.959468 0.760015 1.718359
C 6.715349 1.463159 1.827519
C 7.970306 7.889529 1.772834
C 6.742468 2.893591 2.003729
C 8.013699 5.064873 2.018141
C 7.968623 3.627795 1.911592
C 6.744197 7.207183 2.061787
C 4.079491 5.831605 2.376983
C 5.476321 3.440240 2.300415
C 6.923708 5.846883 2.419568
N 3.017156 7.910214 1.802612
N 4.232712 1.435090 1.856480
N 9.206239 5.755095 1.704931
Pt 5.493548 5.002722 3.443427
