32
Title                                   
C 0.550208 0.785590 1.811257
C 9.175005 1.501670 1.797904
C 0.564284 7.896249 1.801260
C 9.165731 2.927548 1.830634
C 0.552160 5.046867 1.873651
C 9.201850 5.756014 1.809172
C 0.540374 3.613332 1.892475
C 9.202060 7.187510 1.772060
C 3.014919 0.742676 1.843136
C 1.792890 1.477713 1.864420
C 3.038991 7.872989 1.854565
C 1.780268 2.899183 1.948122
C 3.011528 5.022483 2.092534
C 1.782785 5.732624 1.908275
C 1.799890 7.164531 1.857706
C 5.491852 0.739727 1.848780
C 4.248265 1.446007 1.904817
C 4.244025 2.862807 2.098147
C 4.268485 7.143163 1.966167
C 7.958881 0.776967 1.758318
C 6.710143 1.476851 1.809079
C 7.965524 7.913581 1.749622
C 6.686674 2.906708 1.948578
C 7.945833 5.094801 1.758684
C 6.768350 7.158199 1.729649
C 4.188823 5.751195 2.298982
C 5.457752 3.534014 2.306304
N 6.794036 5.800470 1.646198
N 5.504119 7.849396 1.826540
N 3.004754 3.591714 2.083839
N 7.919686 3.643393 1.820215
Ni 5.603618 5.095218 3.202411
