31
Title                                   
C 0.004926 1.803522 5.909014
C 1.236479 2.530930 5.933128
C 1.235919 3.981690 5.988897
C -0.011332 4.679801 6.006403
C 0.008557 10.323666 6.002042
C 1.238385 12.454135 5.925958
C 0.007404 14.614596 5.888545
C 1.238012 15.337385 5.890893
C 1.237456 16.774770 5.892346
C 0.006536 13.175387 5.899010
C 2.468310 1.803478 5.908105
C 3.708535 2.517887 5.911220
C 3.708023 3.946500 5.945243
C 2.471300 0.365646 5.892946
C 3.707949 6.732943 6.047195
C 3.710437 8.198909 6.046912
C 2.482906 4.680292 5.997679
C 2.469535 10.324822 5.998023
C 3.710815 12.469779 5.893425
C 2.468843 14.614566 5.888411
C 3.709914 15.333530 5.884448
C 3.709412 16.771750 5.887299
C 2.470409 13.175196 5.898258
C 3.711487 11.049432 5.920006
C 0.003193 0.365528 5.893396
C 2.490535 8.918065 6.169586
C -0.012258 8.915020 6.178813
N 2.526749 6.060053 6.076177
N -0.057610 6.058687 6.109545
N 1.238593 11.041541 5.988135
Re 1.242995 7.538643 6.830140
