32
Title                                   
C 0.558523 0.770518 1.755205
C 9.192090 1.479503 1.801850
C 0.561960 7.891559 1.744873
C 9.187013 2.908067 1.860870
C 0.553204 5.039490 1.801113
C 9.195121 5.751313 1.843182
C 0.564274 3.617218 1.826036
C 9.191819 7.180436 1.793551
C 3.018708 0.754421 1.755827
C 1.799849 1.488173 1.767245
C 3.033903 7.889586 1.752653
C 1.799474 2.906810 1.813097
C 3.037174 5.033859 1.851162
C 1.793803 5.740491 1.770912
C 1.801540 7.163688 1.744000
C 5.484740 0.750347 1.870186
C 4.249378 1.458561 1.826385
C 4.253351 2.887439 1.940909
C 4.262076 7.161774 1.853036
C 7.964462 0.765541 1.811052
C 6.717726 1.459875 1.888313
C 7.957641 7.902291 1.811741
C 6.704183 2.883445 2.014563
C 7.954249 5.051444 2.005107
C 7.951279 3.615469 1.979143
C 6.722219 7.185420 1.950194
C 4.232924 5.764286 1.960490
C 5.459162 3.532397 2.166659
C 6.778253 5.818984 2.186375
N 5.487030 7.885875 1.886732
N 3.023808 3.613517 1.862079
Ag 5.442827 5.059392 3.818959
