32
Title                                   
C 0.558697 0.774694 1.632482
C 9.192357 1.476290 1.676538
C 0.550731 7.894533 1.635526
C 9.193638 2.900258 1.742476
C 0.559820 5.034271 1.682722
C 9.203139 5.746374 1.741517
C 0.563406 3.614038 1.703592
C 9.191849 7.173584 1.694214
C 3.020138 0.770467 1.716843
C 1.794514 1.488455 1.676201
C 3.006376 7.898125 1.749864
C 1.805260 2.917956 1.738481
C 2.991880 5.070654 1.961255
C 1.779740 5.759148 1.727766
C 3.038078 3.632415 1.930798
C 1.775462 7.185385 1.693077
C 5.484634 0.737017 1.874464
C 4.254117 1.464726 1.838958
C 5.478089 7.860133 1.976392
C 4.262253 2.877148 2.030411
C 5.505421 3.482902 2.367771
C 4.206162 7.185827 1.986335
C 7.963255 0.756194 1.723394
C 6.730453 1.449577 1.850486
C 7.959534 7.884424 1.756562
C 6.742585 2.857259 2.044104
C 7.998115 5.035744 1.994006
C 6.848991 5.797676 2.329913
C 7.971330 3.600097 1.950221
C 6.746913 7.175262 2.006271
N 4.104595 5.834829 2.308553
Nb 5.452232 5.075728 3.572304
