32
Title                                   
C 0.002212 1.791112 5.731999
C 1.235704 2.510704 5.795764
C 1.235730 3.936133 5.970599
C -0.002605 6.029655 6.359586
C -0.011132 4.635625 6.067048
C -0.012244 10.362459 6.172920
C 1.235436 12.476668 5.817882
C 0.000794 14.626208 5.637432
C 1.235618 15.344477 5.619479
C 1.235579 16.774856 5.627094
C 0.000757 13.197720 5.729476
C 2.469204 1.790997 5.732540
C 3.707769 2.503471 5.786694
C 3.707864 3.915787 5.941508
C 2.470685 0.363173 5.650431
C 2.473672 6.029321 6.360019
C 3.707131 8.187767 6.465234
C 2.482662 4.635329 6.067518
C 2.482592 10.362369 6.171810
C 3.707425 12.490940 5.793975
C 2.470381 14.626142 5.637774
C 3.707643 15.343427 5.617478
C 3.707666 16.774942 5.625274
C 2.470243 13.197660 5.729742
C 3.707334 11.073693 6.000854
C 1.235224 11.064129 6.052534
C 0.000532 0.363314 5.649795
C 2.525336 8.968590 6.501397
C 4.888675 8.968971 6.504914
C 1.235499 6.673047 6.623160
N 3.707453 6.752911 6.433678
Mn 1.236493 8.275727 7.575695
