25
Title                                   
C 7.773719 1.766309 1.957534
C 7.745266 4.309785 1.930051
C 7.787102 6.830791 1.937709
C 1.686328 0.700498 1.947703
C 0.625405 1.760872 1.946850
C 1.691852 7.848652 1.959605
C 1.341098 5.535519 1.955006
C 0.640411 4.295482 1.932908
C 1.332896 3.037178 1.912700
C 0.655211 6.808082 1.958097
C 4.220079 0.715393 1.933857
C 2.962152 1.408174 1.913632
C 4.234671 7.820222 1.931984
C 2.987191 7.126148 1.953366
C 6.732837 0.729894 1.956828
C 5.460235 1.416133 1.953854
C 6.756109 7.861835 1.937579
C 7.078894 5.572624 1.905244
C 7.051166 3.062104 1.950533
C 5.497634 7.153661 1.905622
C 2.761187 2.836258 1.840431
C 2.786712 5.714811 1.949038
C 5.639685 2.861749 1.946579
N 5.691854 5.766714 1.845768
Ti 4.230848 4.307124 1.311620
