32
Title                                   
C 0.559127 0.773868 1.652582
C 9.190235 1.481268 1.708367
C 0.560015 7.889549 1.645326
C 9.185421 2.908674 1.786922
C 0.554392 5.038584 1.717355
C 9.195125 5.750612 1.777162
C 0.563325 3.619183 1.751874
C 9.190425 7.180166 1.707576
C 3.018032 0.760068 1.707027
C 1.799474 1.487054 1.694182
C 3.032963 7.890301 1.727816
C 1.803557 2.914154 1.774128
C 3.009020 5.040275 1.963381
C 1.792966 5.737285 1.729151
C 1.797808 7.168389 1.683454
C 5.483737 0.743565 1.872289
C 4.246289 1.461267 1.827097
C 4.245337 2.871508 2.021872
C 4.241513 7.182071 1.971635
C 7.965094 0.767574 1.735426
C 6.723592 1.454476 1.868789
C 7.951098 7.897794 1.752652
C 6.715394 2.860044 2.076953
C 7.981559 5.055631 2.036194
C 7.951612 3.613124 1.990120
C 6.734246 7.197854 1.989096
C 4.160056 5.803364 2.354761
C 5.463203 3.487845 2.413271
C 6.820055 5.833811 2.378331
N 5.481603 7.881195 1.956153
N 3.020866 3.613280 1.935176
Tc 5.496623 5.047358 3.507384
