32
Title                                   
C 0.552936 0.780328 1.631652
C 9.187027 1.492631 1.653969
C 0.569313 7.903372 1.639727
C 9.178244 2.927072 1.715612
C 0.560935 5.050280 1.679736
C 9.206719 5.764588 1.716994
C 0.559738 3.619593 1.693656
C 9.209419 7.188867 1.683432
C 3.015451 0.746731 1.764009
C 1.801895 1.475791 1.693450
C 1.796877 2.903675 1.753400
C 2.984068 5.029418 2.071198
C 1.795756 5.761643 1.772311
C 3.019613 3.595648 2.009168
C 1.798411 7.188335 1.717726
C 5.485581 0.729196 1.876151
C 5.483461 7.868914 1.996340
C 4.233713 2.819483 2.152849
C 4.206875 7.187064 2.103000
C 7.952939 0.766915 1.680222
C 6.708420 1.463164 1.804005
C 7.970802 7.902926 1.730900
C 6.719960 2.864576 2.022084
C 7.984286 5.076935 1.945689
C 7.939414 3.632653 1.905130
C 6.761787 7.191497 1.976460
C 4.100902 5.832265 2.459462
C 5.479741 3.425221 2.457184
N 6.878383 5.842093 2.280667
N 3.019723 7.907355 1.798279
N 4.235041 1.421057 1.900720
Os 5.536333 5.051904 3.428316
