32
Title                                   
C 0.552707 0.787115 1.748493
C 9.176654 1.496758 1.767518
C 0.559527 7.895807 1.710241
C 9.176165 2.923246 1.833046
C 0.557882 5.045661 1.785712
C 9.199153 5.748784 1.735857
C 0.549382 3.614883 1.854789
C 9.196243 7.181662 1.697730
C 3.017810 0.755329 1.788459
C 1.796430 1.484911 1.816108
C 3.033087 7.887335 1.781944
C 1.792590 2.906328 1.918604
C 3.013208 5.036054 2.063972
C 1.789615 5.737039 1.815801
C 1.797455 7.171154 1.758916
C 5.496031 0.741204 1.854577
C 4.255020 1.453820 1.885734
C 4.254536 2.865314 2.106268
C 4.252242 7.166118 1.966696
C 7.959842 0.768459 1.723652
C 6.716669 1.466695 1.810000
C 7.956335 7.901745 1.707727
C 6.703143 2.886851 1.994089
C 7.950167 5.075320 1.807665
C 6.753522 7.158398 1.791171
C 4.157258 5.804331 2.378682
C 5.489066 3.494267 2.410506
N 6.787162 5.788002 1.863810
N 5.501731 7.850927 1.871997
N 3.015865 3.602338 2.081633
N 7.931866 3.637566 1.886162
Ir 5.545400 5.077769 3.495941
