32
Title                                   
C 0.545009 0.793825 1.798524
C 9.181233 1.493664 1.831953
C 0.555269 7.914367 1.784415
C 9.171297 2.927278 1.888747
C 0.553475 5.052345 1.807857
C 9.195391 5.762845 1.868656
C 0.558002 3.625566 1.828871
C 9.198699 7.186792 1.836608
C 3.011143 0.757773 1.794195
C 1.791125 1.492481 1.805812
C 1.814003 2.923881 1.813910
C 3.030974 5.085375 1.733939
C 1.782967 5.775753 1.755832
C 3.063994 3.646379 1.830870
C 1.779183 7.197829 1.755324
C 5.484721 0.711059 1.872380
C 4.254913 1.441510 1.849056
C 5.471458 7.835012 1.863970
C 4.283926 2.870518 1.957885
C 4.204106 7.138571 1.739974
C 7.953289 0.760485 1.831261
C 6.711675 1.447671 1.895063
C 7.958689 7.890040 1.855966
C 6.685179 2.863952 2.048386
C 7.957753 5.074483 2.048724
C 7.924784 3.631280 2.023184
C 6.740675 7.143303 1.982598
N 4.178469 5.817099 1.661212
N 5.480940 3.489475 2.216241
N 6.814081 5.803820 2.245560
N 2.999793 7.907957 1.765110
Pt 5.597547 4.948801 3.721416
