32
Title                                   
C 0.555443 0.781691 1.682321
C 9.187848 1.480949 1.725863
C 0.545821 7.902589 1.682546
C 9.180072 2.906520 1.797189
C 0.553061 5.036705 1.733884
C 9.198541 5.749522 1.804022
C 0.561458 3.618682 1.763388
C 9.190143 7.176060 1.761768
C 3.013027 0.775191 1.734166
C 1.793156 1.496954 1.711270
C 2.997720 7.905726 1.759930
C 1.816123 2.928031 1.772600
C 3.010431 5.090585 1.920123
C 1.773744 5.764337 1.744045
C 3.063005 3.640268 1.888955
C 1.771044 7.190040 1.713351
C 5.482069 0.719489 1.879679
C 4.257539 1.454946 1.816516
C 5.471969 7.857849 2.005017
C 4.300284 2.869947 1.931112
C 4.196090 7.176027 1.972210
C 7.965051 0.754369 1.771458
C 6.724634 1.435542 1.848122
C 7.961991 7.885175 1.827768
C 6.704369 2.844340 1.969657
C 7.982450 5.040390 2.055981
C 6.877460 5.823511 2.421423
C 7.947035 3.600945 1.962607
C 6.742311 7.176361 2.081653
N 4.130534 5.834731 2.148343
N 5.509644 3.478070 2.112933
Cu 5.469697 5.015647 3.313601
