32
Title                                   
C 0.551035 0.764130 1.699646
C 9.191909 1.480955 1.713266
C 0.561809 7.881979 1.710406
C 9.189071 2.911023 1.756483
C 0.556181 5.054394 1.751127
C 0.549488 3.625826 1.749927
C 9.202556 7.165297 1.750022
C 3.020133 0.758641 1.773261
C 1.792969 1.474339 1.739561
C 1.789454 2.904181 1.779182
C 3.008806 5.025616 1.967670
C 1.786044 5.763798 1.797454
C 3.016367 3.601792 1.917455
C 1.803173 7.186418 1.758429
C 5.486718 0.757847 1.859297
C 5.476583 7.894397 1.966252
C 4.254681 2.863438 1.989916
C 4.233167 7.173547 2.016508
C 7.960320 0.757894 1.745931
C 6.715247 1.470974 1.818429
C 7.963162 7.885319 1.792138
C 6.732697 2.902805 1.943804
C 7.981387 5.063398 1.985250
C 7.965106 3.624007 1.890704
C 6.727908 7.191278 1.998309
C 4.153408 5.811472 2.212026
C 5.474980 3.493242 2.161607
C 6.842329 5.809853 2.255915
N 3.015416 7.906972 1.792470
N 4.233502 1.439261 1.838896
N 9.206402 5.756304 1.772754
Ag 5.491754 5.010793 3.809407
