32
Title                                   
C 0.549569 0.794308 1.755774
C 9.186462 1.494788 1.779358
C 0.564521 7.912736 1.749038
C 9.169909 2.929726 1.825425
C 0.559370 5.050809 1.770585
C 9.203834 5.762902 1.797172
C 0.559920 3.623454 1.798145
C 9.206893 7.184683 1.775155
C 3.015145 0.753109 1.797627
C 1.796251 1.489954 1.780290
C 1.816107 2.920803 1.811646
C 3.026771 5.077488 1.903972
C 1.786541 5.772281 1.781029
C 3.064685 3.638808 1.892853
C 1.783702 7.193172 1.770814
C 5.490987 0.706026 1.876658
C 4.256304 1.430840 1.853136
C 5.479848 7.831050 1.935157
C 4.296725 2.859099 1.942777
C 4.206978 7.143263 1.942413
C 7.959826 0.759488 1.786971
C 6.716491 1.439892 1.846864
C 7.969776 7.892121 1.802258
C 6.675416 2.865974 1.948011
C 7.954043 5.082714 1.942187
C 7.919262 3.634635 1.920745
C 6.761177 7.135685 1.947829
N 4.156023 5.822967 2.071618
N 5.484790 3.499063 2.084414
N 6.811070 5.795305 2.112214
N 3.006538 7.903500 1.801303
Ag 5.498827 5.010547 3.910062
