32
Title                                   
C 0.549897 0.772096 1.633340
C 9.189793 1.479344 1.664301
C 0.562689 7.897844 1.648349
C 9.187366 2.911073 1.730290
C 0.561725 5.044618 1.689800
C 9.202855 5.752519 1.750745
C 0.561324 3.618860 1.695342
C 9.199758 7.177709 1.701198
C 3.011887 0.753563 1.739776
C 1.791103 1.471547 1.677279
C 1.801380 2.904370 1.728725
C 2.996060 5.045939 1.997308
C 1.795767 5.763829 1.750160
C 3.019877 3.611376 1.935617
C 1.794235 7.188968 1.716313
C 5.489882 0.744451 1.846300
C 4.247186 1.450930 1.843651
C 5.476464 7.884623 1.967674
C 4.244285 2.860396 2.033644
C 4.125445 5.825922 2.372739
C 5.490072 3.475791 2.364431
C 4.209736 7.200341 2.046023
C 7.961077 0.760690 1.704914
C 6.727096 1.459408 1.819423
C 7.961947 7.890592 1.752320
C 6.729890 2.865728 2.028230
C 7.991414 5.045447 1.996117
C 6.839297 5.811463 2.334235
C 7.966087 3.610455 1.940649
C 6.739097 7.187155 1.997898
N 3.010173 7.901268 1.785840
Ru 5.498899 5.042877 3.420870
