32
Title                                   
C 0.550535 0.763565 1.639031
C 9.190067 1.482155 1.651532
C 0.563979 7.883000 1.663152
C 9.187695 2.909517 1.702466
C 0.557217 5.053456 1.706259
C 0.554236 3.624140 1.694000
C 9.200876 7.164719 1.708938
C 3.015851 0.760642 1.745969
C 1.795744 1.475050 1.688199
C 1.792287 2.908404 1.736802
C 2.991003 5.035398 2.038742
C 1.787002 5.761875 1.785796
C 3.023557 3.601715 1.962326
C 1.801801 7.190760 1.737141
C 5.482921 0.754479 1.836121
C 5.471835 7.892015 1.985761
C 4.241916 2.844859 2.070248
C 4.212965 7.198716 2.091215
C 7.959748 0.757272 1.690564
C 6.716885 1.466091 1.786833
C 7.963048 7.884574 1.754011
C 6.736378 2.881460 1.992426
C 8.002086 5.063806 2.007529
C 7.964643 3.622689 1.906936
C 6.735925 7.201139 2.009870
C 4.114982 5.833900 2.424879
C 5.484616 3.451898 2.376639
C 6.860867 5.823220 2.363799
N 3.017547 7.909649 1.794811
N 4.234869 1.440724 1.842502
N 9.206250 5.750961 1.747787
Mo 5.514432 5.019341 3.571215
