32
Title                                   
C 0.003626 1.794360 5.708602
C 1.239216 2.515659 5.764237
C 1.241269 3.940932 5.928096
C 0.028931 6.031238 6.309971
C -0.005701 4.645867 6.010003
C -0.026041 10.309695 6.053687
C 1.229733 12.453951 5.860424
C 0.000837 14.618058 5.685676
C 1.234793 15.339979 5.672457
C 1.236313 16.771094 5.655700
C 0.000178 13.187373 5.761226
C 2.472843 1.792986 5.711631
C 3.709919 2.511903 5.750102
C 3.710499 3.929197 5.888608
C 2.472541 0.362014 5.661586
C 2.452993 6.038926 6.339625
C 3.720748 8.299197 6.409672
C 2.486689 4.649804 6.025741
C 2.493855 10.355223 6.239044
C 3.707180 12.481789 5.821736
C 2.468424 14.616947 5.700850
C 3.707173 15.336148 5.666093
C 3.708696 16.770358 5.651022
C 2.465940 13.186983 5.792420
C 3.705482 11.062528 5.983818
C 1.231848 11.031560 6.061314
C 0.001116 0.362873 5.658611
C 2.569460 9.020022 6.719267
N 4.874277 8.935008 6.095429
N 1.236171 6.618887 6.584152
N 3.723902 6.795323 6.436142
Zn 1.154426 8.281441 7.844361
