32
Title                                   
C 0.554856 0.790552 1.723647
C 9.183753 1.495293 1.760949
C 0.554814 7.911275 1.699489
C 9.166230 2.927233 1.811290
C 0.554851 5.041464 1.736134
C 9.200965 5.761826 1.755273
C 0.554822 3.624018 1.781332
C 9.201336 7.187608 1.730939
C 3.015589 0.764593 1.775649
C 1.795492 1.495022 1.760549
C 3.006480 7.892118 1.779039
C 1.812941 2.927099 1.810241
C 3.021196 5.085997 1.921181
C 1.778224 5.761856 1.753851
C 3.058701 3.631443 1.912029
C 1.777810 7.187585 1.729572
C 5.489807 0.703841 1.878331
C 4.260597 1.440405 1.848713
C 5.489790 7.827141 1.944850
C 4.300570 2.862006 1.952310
C 4.210415 7.143468 1.943603
C 7.963989 0.765019 1.776390
C 6.719053 1.440548 1.848832
C 7.973078 7.892526 1.780713
C 6.678848 2.862098 1.952894
C 7.958453 5.085970 1.923562
C 7.920708 3.631411 1.914131
C 6.769422 7.143907 1.945548
N 4.157939 5.800785 2.106241
N 5.489641 3.499658 2.097338
N 6.822574 5.801358 2.109373
Ag 5.490816 5.026065 3.849507
