32
Title                                   
C 0.563462 0.787046 1.733088
C 9.205147 1.484479 1.788099
C 0.570953 7.904204 1.738923
C 9.199384 2.914665 1.869800
C 0.564699 5.051090 1.805447
C 9.203950 5.754816 1.898854
C 0.574697 3.618388 1.824409
C 9.208773 7.177747 1.843154
C 3.029212 0.763800 1.705179
C 1.807028 1.490451 1.730851
C 1.825640 2.916061 1.781278
C 3.027046 5.083131 1.780346
C 1.780755 5.776658 1.745233
C 3.082440 3.644078 1.800335
C 1.785240 7.193170 1.709657
C 5.507243 0.732075 1.845887
C 4.260780 1.439771 1.757522
C 5.486314 7.870274 1.968335
C 4.300301 2.858608 1.825671
C 4.224971 7.191945 1.828378
C 7.976772 0.755264 1.810983
C 6.739307 1.444132 1.841732
C 7.973705 7.886480 1.883204
C 6.730110 2.868746 1.940894
C 7.980808 5.056716 2.150851
C 6.820986 5.802998 2.475210
C 7.956478 3.616708 2.023998
C 6.753833 7.167006 2.117963
N 4.175189 5.851393 1.841781
N 5.512798 3.491395 2.003960
N 3.018607 7.910051 1.685269
Y 5.087136 4.907847 3.557208
