31
Title                                   
C 0.547618 0.755924 1.678500
C 9.190477 1.478094 1.820832
C 0.555474 7.886543 1.679110
C 9.202567 2.903527 1.865808
C 0.553756 5.039772 1.695631
C 9.205408 5.758765 1.873779
C 0.549105 3.616865 1.693856
C 9.197268 7.182271 1.829020
C 3.017487 0.759230 1.664513
C 1.777984 1.462526 1.625458
C 3.031506 7.881932 1.654018
C 1.770224 2.887866 1.614338
C 3.029041 5.035692 1.613844
C 1.783233 5.742586 1.608849
C 3.005629 3.568253 1.630794
C 1.795357 7.171372 1.612991
C 5.483244 0.784764 2.033284
C 4.229209 1.507687 1.816946
C 5.488615 7.908031 2.030184
C 4.248491 5.739307 1.722224
C 4.263240 7.151692 1.788859
C 7.964261 0.774548 1.954762
C 6.744855 1.511576 2.160917
C 7.967632 7.896940 1.961082
C 6.803783 2.895846 2.412711
C 8.008394 5.069856 2.197227
C 6.806667 5.786254 2.448465
C 8.006907 3.604558 2.190121
C 6.749795 7.174842 2.176535
N 4.181924 2.876814 1.788790
Sc 5.282220 4.328110 2.975851
