32
Title                                   
C 0.557304 0.794885 1.814154
C 9.180552 1.543901 1.817665
C 0.601796 7.919884 1.814656
C 9.141908 2.974530 1.798520
C 0.568732 5.066548 1.798863
C 9.221522 5.815011 1.796619
C 0.534659 3.641454 1.792183
C 9.224961 7.244510 1.805665
C 3.050401 0.716642 1.845529
C 1.809206 1.461963 1.823635
C 3.116054 7.807270 1.852289
C 1.757753 2.891761 1.821471
C 3.038144 4.981709 1.862734
C 1.818543 5.735685 1.820142
C 1.846716 7.160409 1.828655
C 5.490540 0.769736 1.904720
C 4.250726 1.471033 1.895212
C 4.185216 2.914380 1.956705
C 4.373502 7.016763 1.880015
C 7.941725 0.868444 1.836439
C 6.669439 1.580374 1.879706
C 7.991653 7.989487 1.822143
C 6.612338 3.066611 1.908128
C 7.960022 5.167692 1.782856
C 7.888505 3.717256 1.816326
C 6.810650 7.210189 1.811460
C 4.350084 5.505279 1.914767
C 5.278672 3.819149 2.185965
N 6.817236 5.893574 1.754708
N 5.540700 7.855177 1.873395
N 2.959481 3.576275 1.866898
Au 5.345022 4.233611 4.331276
