31
Title                                   
C 0.003023 1.807247 5.958901
C 1.237083 2.541295 5.971732
C 1.239040 3.986986 6.000262
C -0.016836 4.678343 6.015582
C -0.009971 10.304140 6.024156
C 1.227787 12.448594 5.980973
C 0.003691 14.614135 5.946859
C 1.232749 15.335561 5.940153
C 1.233684 16.774864 5.937294
C 0.004092 13.171362 5.967960
C 2.466481 1.803001 5.958360
C 3.704506 2.518302 5.970673
C 3.703492 3.945684 5.999184
C 2.467126 0.366270 5.941457
C 3.738573 6.747129 6.048691
C 3.735781 8.234217 6.052566
C 2.487684 4.700577 6.013402
C 2.473671 10.311407 6.022908
C 3.709270 12.464283 5.980662
C 2.462580 14.608176 5.946993
C 3.705398 15.330710 5.940244
C 3.706077 16.770790 5.937344
C 2.459970 13.166793 5.967962
C 3.700470 11.048343 6.010091
C 0.000496 0.367690 5.941679
C 2.534317 8.918563 6.041666
N 4.908952 8.954527 6.047983
N 2.562526 6.071021 6.037943
N -0.070418 6.036435 6.043314
N 1.222238 11.019478 6.008252
Pt 1.252964 7.512222 6.045954
