31
Title                                   
C 0.006056 1.813453 5.863363
C 1.237741 2.536432 5.888984
C 1.237546 3.984212 5.961730
C -0.003220 4.684250 6.002663
C 0.003462 10.308660 6.045372
C 1.236735 12.465962 5.904086
C 0.002042 14.625431 5.846122
C 1.237420 15.346078 5.840102
C 1.237817 16.783073 5.837192
C 0.001483 13.188927 5.874814
C 2.469753 1.813749 5.862524
C 3.710192 2.528932 5.875827
C 3.710296 3.959215 5.936479
C 2.471830 0.375414 5.840087
C 3.708897 6.719962 6.135175
C 3.707755 8.170971 6.195659
C 2.478971 4.682874 5.997129
C 2.469944 10.310363 6.037999
C 3.709185 12.467933 5.893685
C 2.472577 14.625342 5.845572
C 3.709477 15.346871 5.837923
C 3.709848 16.785255 5.835050
C 2.472505 13.188633 5.873667
C 3.709230 11.032012 5.967732
C 1.236407 11.035227 5.992124
C 0.003840 0.375207 5.840549
C 2.476484 8.891038 6.193396
C -0.002969 8.889689 6.212877
N 2.513183 6.063516 6.116152
N -0.038121 6.064781 6.132450
Ta 1.246048 7.494685 7.014715
