32
Title                                   
C 0.557278 0.767882 1.723387
C 9.196030 1.477962 1.750473
C 0.566017 7.890040 1.709910
C 9.190264 2.909470 1.832190
C 0.562474 5.048133 1.806424
C 9.191905 5.750006 1.822402
C 0.564136 3.615282 1.819678
C 9.196001 7.172116 1.743446
C 3.019644 0.760712 1.775912
C 1.799476 1.477470 1.777107
C 1.801614 2.903978 1.845870
C 3.034835 5.026543 1.993555
C 1.804040 5.759724 1.815815
C 3.035310 3.598378 2.012360
C 1.796159 7.183621 1.754617
C 5.480824 0.755739 1.816732
C 5.471154 7.914248 1.853381
C 4.257161 2.835275 2.136306
C 4.229296 7.203130 1.931795
C 7.960089 0.760659 1.724616
C 6.719918 1.462887 1.823154
C 7.963575 7.895769 1.737970
C 6.731019 2.851692 2.083305
C 7.948540 5.040724 1.993130
C 7.952161 3.600931 1.988314
C 6.720960 7.202447 1.886673
C 4.182222 5.846784 2.164010
C 5.487165 3.408342 2.467498
C 6.779398 5.827699 2.143872
N 3.017512 7.921030 1.770908
N 4.234442 1.442001 1.845322
Ni 5.483142 5.100516 3.163370
