32
Title                                   
C 0.002127 1.784601 5.869753
C 1.236481 2.499471 5.955967
C 1.236628 3.920232 6.156595
C 0.011590 6.019231 6.520471
C -0.006392 4.625453 6.238809
C -0.020178 10.316816 5.853150
C 1.236683 12.467531 5.741619
C 0.002795 14.623592 5.670113
C 1.236585 15.342066 5.681190
C 1.236411 16.773172 5.723652
C 0.004886 13.193192 5.690773
C 2.470578 1.784442 5.870189
C 3.708244 2.499955 5.931683
C 3.708288 3.910275 6.096453
C 2.471808 0.359362 5.759043
C 2.461203 6.020739 6.523109
C 3.708795 8.138035 6.147852
C 2.479250 4.626514 6.240775
C 2.494951 10.319966 5.872879
C 3.708738 12.481825 5.697081
C 2.470434 14.623778 5.671305
C 3.708544 15.341628 5.671381
C 3.708416 16.769917 5.715389
C 2.468434 13.193121 5.693966
C 3.708771 11.065447 5.758711
C 1.237188 11.027532 5.844187
C 0.000953 0.359507 5.758678
C 2.539318 8.908370 6.103535
C 4.881347 8.899514 6.042709
C 1.235621 6.679854 6.824774
N 3.708973 6.745214 6.478870
Zr 1.199863 8.726973 7.646640
