32
Title                                   
C 0.551954 0.776900 1.655197
C 9.185026 1.492838 1.682632
C 0.572203 7.897603 1.656561
C 9.174918 2.924656 1.729467
C 0.560151 5.046335 1.676028
C 9.205569 5.761365 1.729875
C 0.552602 3.614692 1.696273
C 9.211599 7.188171 1.708547
C 3.018701 0.746323 1.757656
C 1.796472 1.470010 1.703955
C 1.787373 2.894741 1.747250
C 2.996356 5.023107 1.996665
C 1.795968 5.753080 1.736463
C 3.015238 3.588997 1.967167
C 1.801561 7.181307 1.703095
C 5.486588 0.739836 1.877820
C 5.485846 7.869553 1.993778
C 4.229901 2.827321 2.103830
C 4.221401 7.174062 2.053189
C 7.952266 0.771532 1.715767
C 6.706415 1.471890 1.822780
C 7.973556 7.905938 1.764162
C 6.712244 2.885170 2.019964
C 7.986867 5.079118 1.960762
C 7.931840 3.637711 1.914923
C 6.766858 7.193907 2.000996
C 4.124580 5.807979 2.358412
C 5.456924 3.452452 2.404808
N 6.878379 5.843082 2.319632
N 3.029007 7.898433 1.772385
N 4.229873 1.424752 1.877201
Nb 5.535526 5.068329 3.606259
