31
Title                                   
C 0.000022 1.788058 5.864397
C 1.237007 2.510581 5.895041
C 1.237579 3.934361 5.984031
C 0.002054 4.661401 6.040545
C 0.006080 10.333890 6.033397
C 1.237304 12.459829 5.896335
C 0.005833 14.615453 5.833484
C 1.236687 15.336536 5.828593
C 1.236525 16.768321 5.828410
C 0.004942 13.179605 5.862458
C 2.473813 1.787851 5.862804
C 3.708946 2.504020 5.885207
C 3.709449 3.939029 5.967137
C 2.472717 0.355366 5.833667
C 3.710635 6.772971 6.194946
C 3.710868 8.264935 6.182338
C 2.472969 4.661771 6.031359
C 2.468754 10.332341 6.020709
C 3.709153 12.477819 5.876748
C 2.467833 14.615671 5.832517
C 3.708984 15.328904 5.825366
C 3.708887 16.765257 5.826099
C 2.469373 13.179708 5.860323
C 3.709340 11.059966 5.948898
C 0.000626 0.355687 5.834391
C 2.471967 8.933509 6.153754
C 0.004384 8.938301 6.189908
C 2.486079 6.080289 6.162109
C -0.008654 6.077556 6.189081
N 1.237623 11.058622 5.984226
Ti 1.244638 7.480542 6.972922
