31
Title                                   
C 0.540998 0.761423 1.706611
C 9.170844 1.491582 1.719924
C 0.568788 7.893050 1.706673
C 9.188263 2.920669 1.711361
C 0.559971 5.037309 1.677357
C 9.217102 5.784155 1.749566
C 0.550126 3.616887 1.677527
C 9.206745 7.207139 1.767265
C 3.015321 0.743259 1.872444
C 1.772513 1.446911 1.766834
C 3.050646 7.847991 1.828268
C 1.762397 2.869734 1.748963
C 2.999110 4.993319 1.825632
C 1.790974 5.734157 1.710581
C 2.967373 3.550693 1.922825
C 1.808236 7.162978 1.719323
C 5.473523 0.778396 2.072969
C 4.205687 1.498295 2.075944
C 5.506018 7.875997 2.072715
C 4.241619 5.653206 1.929566
C 4.287458 7.098727 1.947154
C 7.928634 0.806158 1.828487
C 6.692202 1.555366 1.947097
C 7.963927 7.910992 1.872202
C 6.737982 3.000742 1.929368
C 8.011870 5.103547 1.922472
C 7.979932 3.661139 1.825601
C 6.773687 7.155897 2.075043
N 4.130562 2.879662 2.246562
N 6.849112 5.774993 2.245418
Ru 5.489756 4.327670 2.717547
