31
Title                                   
C -0.001338 1.794866 5.871290
C 1.234689 2.517061 5.893372
C 1.233894 3.945152 5.974941
C 0.006927 4.684732 6.041505
C 0.012563 10.310496 6.023427
C 1.234246 12.453369 5.892780
C 0.004699 14.610227 5.847752
C 1.236612 15.333680 5.844053
C 1.236822 16.770461 5.844467
C 0.002902 13.171927 5.867837
C 2.473401 1.797623 5.864587
C 3.709337 2.520064 5.883170
C 3.710025 3.958630 5.949049
C 2.473322 0.360489 5.845605
C 3.700836 6.790468 6.175447
C 3.700172 8.248899 6.180005
C 2.464454 4.670596 5.996588
C 2.455189 10.324255 5.984232
C 3.708463 12.459607 5.872761
C 2.467773 14.609370 5.844504
C 3.708168 15.326735 5.841533
C 3.708293 16.765384 5.842425
C 2.468191 13.169663 5.861916
C 3.708280 11.039276 5.928694
C -0.000343 0.359320 5.848981
C 2.457197 8.925727 6.123899
C 0.012830 8.911809 6.216556
C 2.477666 6.088556 6.125580
C -0.003105 6.102862 6.226946
N 1.233361 11.049326 5.962274
Mo 1.306889 7.487522 7.025023
