31
Title                                   
C 0.554663 0.768515 1.730273
C 9.192846 1.475221 1.750969
C 0.554795 7.885654 1.730292
C 9.201863 2.899976 1.723917
C 0.555088 5.037633 1.670166
C 9.202152 5.754682 1.724101
C 0.555172 3.617001 1.670008
C 9.192718 7.179288 1.751015
C 3.034328 0.770119 1.845171
C 1.786011 1.475057 1.755703
C 3.034325 7.883971 1.845216
C 1.777218 2.899890 1.728309
C 2.992099 5.043828 1.865314
C 1.777295 5.754463 1.728751
C 2.992252 3.610102 1.865132
C 1.786044 7.179153 1.755909
C 5.490037 0.794720 2.022762
C 4.241020 1.515907 1.986856
C 5.489722 7.859599 2.022922
C 4.241023 7.138146 1.986759
C 7.944675 0.770252 1.838923
C 6.738423 1.516585 1.982871
C 7.944398 7.883946 1.838993
C 7.987454 5.044021 1.859667
C 7.987128 3.610669 1.859665
C 6.738306 7.137827 1.983290
N 4.178679 2.914370 2.098381
N 4.178496 5.739745 2.098255
N 6.801312 2.914938 2.094621
N 6.801508 5.739631 2.094850
Nb 5.490335 4.327134 2.910237
