32
Title                                   
C 0.009282 1.785982 5.914701
C 1.247863 2.505371 5.962015
C 1.251307 3.930834 6.074847
C 0.038484 6.039854 6.257574
C 0.009625 4.645374 6.095419
C -0.028922 10.268806 5.815250
C 1.234605 12.443411 5.879984
C 0.008300 14.609837 5.854260
C 1.242365 15.330465 5.859927
C 1.243727 16.764359 5.869095
C 0.010376 13.176833 5.858009
C 2.481851 1.784505 5.920463
C 3.716119 2.508112 5.939206
C 3.715922 3.932176 6.016532
C 2.480250 0.352620 5.879363
C 2.457830 6.071417 6.297223
C 3.752913 8.211222 6.040485
C 2.486958 4.657738 6.124219
C 2.495868 10.322014 6.008605
C 3.715284 12.465331 5.884918
C 2.474227 14.607067 5.867765
C 3.713152 15.327127 5.858860
C 3.715248 16.760355 5.864867
C 2.469102 13.169388 5.888265
C 3.711730 11.046089 5.915272
C 1.234669 10.984368 5.879373
C 0.007817 0.355322 5.875310
C 2.621723 8.927830 6.347405
N 4.881466 8.851729 5.451799
N 1.235810 6.717782 6.524781
N 3.736005 6.783142 6.223854
Ti 0.886374 8.710863 7.201654
