32
Title                                   
C 0.549508 0.761613 1.664719
C 9.191021 1.483860 1.685214
C 0.563712 7.883102 1.673765
C 9.191351 2.907845 1.732740
C 0.560045 5.050800 1.706632
C 0.553204 3.621976 1.715271
C 9.199965 7.167350 1.711090
C 3.014735 0.759130 1.752891
C 1.792502 1.475075 1.709745
C 1.788035 2.902313 1.755870
C 2.994885 5.033902 2.016540
C 1.785794 5.758764 1.774789
C 3.022205 3.598888 1.950174
C 1.801932 7.188227 1.736101
C 5.482879 0.761138 1.840528
C 5.471504 7.892429 1.977362
C 4.240281 2.849646 2.038313
C 4.215270 7.197753 2.069161
C 7.959894 0.760379 1.715710
C 6.718273 1.466717 1.800170
C 7.966485 7.887410 1.760610
C 6.734167 2.890643 1.985280
C 8.002069 5.066008 1.990850
C 7.964397 3.626390 1.912338
C 6.733848 7.200933 2.001105
C 4.123415 5.829709 2.364648
C 5.475608 3.468014 2.297514
C 6.856957 5.818414 2.312666
N 3.016538 7.911899 1.791407
N 4.234764 1.439151 1.831908
N 9.207866 5.749564 1.733109
Zr 5.520654 5.002151 3.705280
