32
Title                                   
C 0.011676 1.776868 5.899944
C 1.249182 2.489211 5.968256
C 1.250253 3.913145 6.121548
C 0.031271 6.032254 6.362953
C 0.009928 4.622014 6.174569
C -0.021261 10.307599 5.850372
C 1.244959 12.454406 5.776754
C 0.013493 14.615637 5.724603
C 1.246707 15.333895 5.737039
C 1.247399 16.765232 5.778639
C 0.016126 13.183612 5.736673
C 2.484526 1.775744 5.904078
C 3.719377 2.493903 5.951370
C 3.719511 3.912591 6.079474
C 2.484298 0.348639 5.811454
C 2.466584 6.041469 6.405580
C 3.723951 6.818877 6.373453
C 3.712837 8.262812 6.121086
C 2.488624 4.627301 6.194687
C 2.510241 10.335048 5.936797
C 3.717554 12.482566 5.757450
C 2.478999 14.616071 5.730766
C 3.718242 15.330611 5.732625
C 3.719330 16.760149 5.773246
C 2.475257 13.182423 5.751379
C 3.716966 11.066012 5.831147
C 1.246559 10.999926 5.853264
C 0.010909 0.349987 5.808258
N 2.580155 9.002926 6.351813
N 4.864634 8.902519 5.701560
N 1.246601 6.649188 6.600626
Y 0.872446 8.594686 7.649839
