32
Title                                   
C 0.557486 0.770978 1.740493
C 9.191301 1.477516 1.790988
C 0.560463 7.892221 1.732511
C 9.187583 2.905935 1.850349
C 0.553316 5.039059 1.789877
C 9.199784 5.750803 1.827934
C 0.564275 3.615616 1.820152
C 9.190704 7.180669 1.776320
C 3.016572 0.757628 1.763812
C 1.798184 1.489150 1.762541
C 3.030399 7.892905 1.784218
C 1.794795 2.906108 1.823471
C 3.020244 5.032902 1.942815
C 1.793009 5.742589 1.790943
C 1.798499 7.165914 1.760066
C 5.481865 0.754107 1.897104
C 4.248546 1.460726 1.852676
C 4.244331 2.885781 1.976652
C 4.252127 7.178776 1.948366
C 7.965429 0.762980 1.809146
C 6.719127 1.456306 1.904636
C 7.957246 7.900473 1.804130
C 6.713353 2.872600 2.036442
C 7.966848 5.048771 1.999438
C 7.955484 3.612636 1.978285
C 6.718624 7.193871 1.952632
C 4.199366 5.782753 2.195492
C 5.462137 3.523416 2.225584
C 6.785855 5.818258 2.198289
N 5.482747 7.889160 1.929073
N 3.019211 3.614108 1.913191
Co 5.504853 5.036477 3.135876
