25
Title                                   
C 7.790485 1.761527 1.957941
C 7.771865 4.289806 1.936425
C 7.790976 6.818118 1.959515
C 1.686809 0.713703 1.963750
C 0.638866 1.761067 1.960592
C 1.687068 7.865417 1.965516
C 1.351005 5.537364 1.936239
C 0.657971 4.289554 1.939159
C 1.350648 3.041735 1.933704
C 0.639339 6.817996 1.963087
C 4.214703 0.732912 1.942073
C 2.967178 1.425889 1.936820
C 4.214978 7.846856 1.942558
C 2.967523 7.153632 1.939305
C 6.742926 0.714154 1.958822
C 5.462159 1.426171 1.932583
C 6.743463 7.865750 1.959430
C 7.078996 5.537590 1.930234
C 7.078528 3.042235 1.929678
C 5.462681 7.153827 1.932594
C 2.773871 2.848693 1.882978
C 2.774205 5.730736 1.886400
C 5.655293 2.849158 1.878492
C 5.656023 5.730961 1.878037
Ti 4.212980 4.291160 1.228169
