31
Title                                   
C 0.545829 0.762613 1.783230
C 9.178928 1.488037 1.787871
C 0.564063 7.891928 1.783791
C 9.195820 2.917280 1.785579
C 0.558586 5.038599 1.766501
C 9.214424 5.776026 1.804751
C 0.551228 3.615786 1.766089
C 9.205608 7.199466 1.818120
C 3.015550 0.750460 1.877354
C 1.773827 1.455068 1.819028
C 3.038324 7.862015 1.845981
C 1.765018 2.878482 1.806337
C 3.005362 5.009050 1.850332
C 1.783372 5.737176 1.788414
C 2.983128 3.556802 1.911904
C 1.800296 7.166361 1.790512
C 5.479394 0.776261 1.984839
C 4.219115 1.497511 1.998555
C 5.499841 7.877645 1.984611
C 4.230039 5.693355 1.901465
C 4.273112 7.120857 1.909526
C 7.940995 0.792255 1.843060
C 6.706022 1.533049 1.907517
C 7.963834 7.903994 1.874637
C 6.749013 2.960646 1.898462
C 7.996396 5.097404 1.908035
C 7.973632 3.645108 1.846462
C 6.760331 7.156902 1.995832
N 4.160847 2.878714 2.106727
N 6.819029 5.775755 2.102616
Cr 5.490411 4.327437 2.571161
