31
Title                                   
C 0.554602 0.760402 1.878553
C 9.188158 1.466989 1.884455
C 0.554579 7.894129 1.878604
C 9.221714 2.887409 1.885471
C 0.568292 5.038533 1.880167
C 9.221768 5.766993 1.885214
C 0.568195 3.615918 1.880132
C 9.188104 7.187508 1.884311
C 3.020131 0.771676 1.896697
C 1.783032 1.469965 1.883081
C 3.020092 7.882804 1.896669
C 1.782361 2.900352 1.882554
C 3.001993 5.051896 1.893954
C 1.782455 5.754116 1.882635
C 3.002000 3.602190 1.893897
C 1.782997 7.184689 1.883190
C 5.466793 0.779762 1.917312
C 4.235840 1.526275 1.909305
C 5.466820 7.874054 1.917013
C 4.235710 7.127911 1.909203
C 7.942735 0.773053 1.899226
C 6.710147 1.527394 1.914286
C 7.942703 7.881258 1.898936
C 6.790218 2.944594 1.916849
C 8.021250 5.045214 1.899311
C 6.790155 5.709664 1.915588
C 8.021201 3.609113 1.899991
C 6.710212 7.126715 1.913507
N 4.193127 2.915062 1.908138
N 4.193087 5.739252 1.908318
Cu 5.480906 4.327152 1.922734
