31
Title                                   
C 0.005570 1.796592 5.948612
C 1.237486 2.528274 5.964264
C 1.237411 3.966006 6.000183
C -0.019842 4.654897 6.018180
C -0.004986 10.340378 6.033129
C 1.237815 12.482106 5.980626
C 0.001339 14.633214 5.940763
C 1.237591 15.347528 5.933731
C 1.237499 16.777119 5.928392
C 0.001657 13.202225 5.964746
C 2.469342 1.796625 5.948107
C 3.709534 2.495421 5.960884
C 3.709566 3.919249 5.995131
C 2.470754 0.365547 5.930729
C 3.709716 6.687777 6.057130
C 3.709774 8.218300 6.062090
C 2.494804 4.654892 6.015338
C 2.480265 10.340350 6.031149
C 3.709881 12.492691 5.980619
C 2.473946 14.633201 5.940573
C 3.709600 15.349260 5.932659
C 3.709477 16.782222 5.927338
C 2.473957 13.202223 5.964395
C 3.709674 11.062549 6.015506
C 1.237682 11.051390 6.015009
C 0.004249 0.365456 5.930975
C 2.520791 8.920451 6.055074
C 4.898936 8.920555 6.059666
N 2.560724 6.018921 6.045589
N -0.085516 6.018739 6.054106
Pt 1.237799 7.533989 6.066508
