31
Title                                   
C 0.550050 0.760954 1.784100
C 9.185212 1.474012 1.798932
C 0.559673 7.893635 1.784156
C 9.206581 2.903447 1.779155
C 0.552632 5.037988 1.744869
C 9.206736 5.768967 1.789133
C 0.557793 3.616545 1.744582
C 9.197607 7.189747 1.810991
C 3.024745 0.775448 1.894309
C 1.781474 1.464827 1.814122
C 3.033112 7.882110 1.882647
C 1.773038 2.885714 1.793408
C 2.982880 5.031405 1.878221
C 1.773021 5.751104 1.784858
C 2.980920 3.583642 1.898492
C 1.793887 7.180602 1.803023
C 5.489610 0.779794 2.023742
C 4.236065 1.534939 2.001462
C 5.489282 7.874838 2.024430
C 4.211644 5.701000 2.003047
C 4.250374 7.129480 1.975236
C 7.945793 0.772335 1.876937
C 6.728410 1.524866 1.968108
C 7.954052 7.878955 1.889320
C 6.768144 2.952938 1.990269
C 7.998474 5.070963 1.889193
C 7.996499 3.622929 1.866997
C 6.742821 7.119301 1.996487
N 4.184683 2.933911 2.044556
N 6.795049 5.720312 2.035896
Co 5.491112 4.325334 2.248622
