32
Title                                   
C 0.548882 0.775665 1.699854
C 9.186770 1.496918 1.709385
C 0.566032 7.889048 1.711843
C 9.172643 2.923542 1.756040
C 0.554184 5.057726 1.754379
C 0.545329 3.625686 1.762809
C 9.208031 7.181175 1.750576
C 3.017338 0.755817 1.770587
C 1.791286 1.478133 1.740153
C 1.789732 2.906331 1.796429
C 2.995646 5.037813 2.041634
C 1.782424 5.762333 1.816014
C 3.037330 3.599012 1.966631
C 1.803863 7.195146 1.769040
C 5.494189 0.737153 1.860012
C 5.485659 7.870730 1.991393
C 4.254644 2.837152 2.010632
C 4.218143 7.184622 2.089714
C 7.958123 0.763306 1.725687
C 6.710489 1.458123 1.790911
C 7.974949 7.895224 1.780519
C 6.700988 2.879700 1.931963
C 7.987829 5.091248 1.952588
C 7.917154 3.647369 1.881060
C 6.754211 7.192156 1.986028
C 4.128716 5.827569 2.371288
N 5.460479 3.431254 2.236831
N 6.876328 5.835309 2.251759
N 3.017695 7.912765 1.808646
N 4.237852 1.426795 1.847711
N 9.201314 5.754777 1.775503
V 5.555511 4.981593 3.375885
