32
Title                                   
C 0.548620 0.776781 1.671509
C 9.184927 1.497245 1.673737
C 0.567935 7.889998 1.691140
C 9.170097 2.924745 1.720046
C 0.555237 5.057929 1.725948
C 0.545481 3.627367 1.729079
C 9.208841 7.181242 1.735584
C 3.015240 0.756268 1.758115
C 1.791955 1.477809 1.716437
C 1.789857 2.908334 1.770519
C 2.990956 5.037954 2.049420
C 1.784027 5.761940 1.797738
C 3.036799 3.598988 1.965625
C 1.803847 7.196018 1.752773
C 5.490983 0.736090 1.846986
C 5.484649 7.870021 1.992503
C 4.249607 2.831169 2.024048
C 4.215364 7.190144 2.102155
C 7.956712 0.763577 1.691096
C 6.709466 1.460134 1.765663
C 7.973907 7.895541 1.759878
C 6.703999 2.874648 1.924039
C 7.994178 5.090812 1.956876
C 7.916689 3.649153 1.864651
C 6.756044 7.195863 1.990121
C 4.112654 5.833584 2.432313
N 5.462806 3.408221 2.305539
N 6.896387 5.848204 2.321616
N 3.020521 7.910323 1.801033
N 4.235527 1.425900 1.845015
N 9.202232 5.757086 1.763492
Nb 5.558218 4.978102 3.568806
