32
Title                                   
C -0.000102 1.790132 5.660759
C 1.234686 2.512738 5.709409
C 1.234741 3.939293 5.863129
C 0.019893 6.024995 6.257090
C -0.014190 4.641445 5.944606
C -0.014620 10.324456 6.115873
C 1.238673 12.455610 5.923875
C 0.004037 14.615108 5.712927
C 1.236830 15.337956 5.686892
C 1.235751 16.767063 5.640036
C 0.006370 13.186451 5.809710
C 2.468727 1.788500 5.664936
C 3.705273 2.508501 5.695399
C 3.703586 3.924552 5.825099
C 2.471267 0.358716 5.634405
C 2.444087 6.036757 6.282039
C 3.738271 8.303976 6.488759
C 2.480323 4.648235 5.960590
C 2.508354 10.365036 6.365846
C 3.712801 12.484333 5.886123
C 2.471569 14.615873 5.732067
C 3.709649 15.334577 5.680490
C 3.708366 16.765968 5.635872
C 2.472383 13.190201 5.851494
C 3.712906 11.069777 6.069657
C 1.244684 11.037276 6.145302
C -0.000145 0.359212 5.629690
C 2.611042 9.048354 6.918095
N 4.875272 8.947616 6.109077
N 1.225106 6.604718 6.525985
N 3.713099 6.794464 6.387095
Cu 1.098644 8.265434 7.638972
