32
Title                                   
C 0.558413 0.790881 1.741443
C 9.185109 1.493171 1.785128
C 0.558622 7.901237 1.738620
C 9.174398 2.920440 1.862396
C 0.550822 5.041761 1.794883
C 9.195565 5.756093 1.834806
C 0.562872 3.618984 1.827935
C 9.195478 7.188992 1.778428
C 3.019257 0.761707 1.730565
C 1.802961 1.499837 1.754369
C 3.027689 7.893732 1.757067
C 1.807104 2.920517 1.814178
C 3.029718 5.065268 1.874821
C 1.787368 5.743113 1.778713
C 1.791468 7.174607 1.754759
C 5.482061 0.721391 1.876797
C 4.257384 1.451448 1.805720
C 4.277914 2.866949 1.922916
C 4.227678 7.148017 1.874575
C 7.960635 0.770445 1.771256
C 6.712150 1.444256 1.880727
C 7.953774 7.897877 1.767987
C 6.687736 2.855315 2.044722
C 7.963461 5.075373 2.019333
C 7.911670 3.632715 2.000666
C 6.747460 7.169442 1.909165
N 4.191529 5.783932 2.023874
N 5.453805 3.474736 2.314123
N 6.816975 5.841240 2.278242
N 5.482995 7.833016 1.901000
N 3.065891 3.632850 1.880474
Ta 5.493802 5.041848 3.613810
