32
Title                                   
C 0.552977 0.784325 1.706832
C 9.183603 1.499656 1.762178
C 0.562957 7.898478 1.690954
C 9.165867 2.925285 1.830696
C 0.549696 5.041522 1.755760
C 9.198330 5.759133 1.776665
C 0.556871 3.618195 1.810558
C 9.198138 7.192806 1.731131
C 3.011928 0.753418 1.729540
C 1.795955 1.489773 1.739199
C 3.032220 7.885939 1.760455
C 1.793712 2.905425 1.825231
C 3.017649 5.041678 1.992389
C 1.791630 5.733224 1.775043
C 1.800405 7.166656 1.730018
C 5.486052 0.733581 1.909463
C 4.246374 1.439186 1.841970
C 4.254879 2.850620 1.984316
C 4.237318 7.160945 1.992514
C 7.961364 0.777393 1.771452
C 6.712391 1.454698 1.882329
C 7.965350 7.914548 1.765073
C 6.678792 2.863373 2.007889
C 7.961356 5.089670 1.956320
C 7.901222 3.644320 1.947083
C 6.751630 7.195750 1.945685
C 4.172149 5.794452 2.320530
N 5.438526 3.469533 2.255298
N 6.821571 5.860402 2.195326
N 5.501948 7.862784 1.967361
N 3.045144 3.603441 1.948122
V 5.585758 5.000979 3.406118
