32
Title                                   
C 0.560094 0.765237 1.776302
C 9.186496 1.421872 1.778807
C 0.508210 7.896666 1.775025
C 9.243897 2.855444 1.781075
C 0.536507 5.040400 1.778584
C 9.157598 5.722675 1.776515
C 0.595779 3.618373 1.780726
C 9.140819 7.145075 1.775024
C 3.047022 0.853852 1.779120
C 1.808303 1.522537 1.777682
C 2.975866 7.963468 1.781657
C 1.855755 2.954412 1.782261
C 3.002801 5.147667 1.792851
C 1.745667 5.797847 1.782363
C 3.089911 3.701817 1.787660
C 1.748215 7.221600 1.779112
C 5.490951 0.747211 1.780873
C 4.316007 1.579553 1.780480
C 5.439794 7.836275 1.785160
C 4.392228 3.082782 1.781613
C 5.713544 3.809153 1.779937
C 4.153160 7.188104 1.792977
C 7.930542 0.689329 1.777207
C 6.729121 1.451889 1.779053
C 7.869376 7.774993 1.776467
C 6.786677 2.891587 1.779214
C 7.950230 4.959666 1.778495
C 6.622635 5.441675 1.778766
C 8.044940 3.545007 1.779461
C 6.599873 6.975647 1.779445
N 4.138121 5.851526 1.805218
Cd 5.553623 4.957853 6.094367
