32
Title                                   
C 0.554592 0.773847 1.703067
C 9.189089 1.487003 1.754609
C 0.560419 7.891517 1.691509
C 9.182386 2.911425 1.837335
C 0.554522 5.041305 1.775941
C 9.201085 5.753628 1.786488
C 0.559436 3.618188 1.814355
C 9.188922 7.182757 1.714563
C 3.009206 0.749558 1.740403
C 1.794313 1.488159 1.739632
C 3.029529 7.885654 1.777343
C 1.790905 2.907308 1.820728
C 3.021082 5.038795 2.001600
C 1.796920 5.737507 1.794274
C 1.796384 7.163570 1.748153
C 5.477268 0.752474 1.865055
C 4.236216 1.453906 1.824561
C 4.231365 2.868622 1.983202
C 4.245974 7.170508 1.987543
C 7.962791 0.773243 1.751736
C 6.716707 1.455668 1.866737
C 7.955344 7.911212 1.726904
C 6.698163 2.870851 2.036921
C 7.962363 5.061910 1.975054
C 7.940549 3.620326 1.978548
C 6.726808 7.208832 1.904632
C 4.200557 5.782903 2.311602
C 5.440452 3.507210 2.256738
C 6.784744 5.840507 2.166778
N 5.480266 7.887224 1.927207
N 3.017820 3.611728 1.952957
Ti 5.627586 5.003845 3.497325
