32
Title                                   
C 0.551708 0.789167 1.699866
C 9.176529 1.500718 1.746682
C 0.560251 7.898187 1.669883
C 9.169859 2.922183 1.830940
C 0.551119 5.046168 1.714789
C 9.191095 5.749291 1.721023
C 0.546408 3.619059 1.807268
C 9.193449 7.183911 1.700927
C 3.014999 0.758204 1.745410
C 1.796211 1.489354 1.750875
C 3.035679 7.890099 1.754803
C 1.798460 2.908352 1.840199
C 3.012163 5.045128 1.977310
C 1.787843 5.736347 1.745381
C 1.796739 7.173857 1.704973
C 5.495471 0.727764 1.913808
C 4.253855 1.445308 1.867230
C 4.270421 2.850903 2.017694
C 4.241920 7.172516 1.981145
C 7.961565 0.769551 1.734490
C 6.719097 1.461068 1.848683
C 7.958799 7.904444 1.748482
C 6.682881 2.865826 1.984128
C 7.953834 5.080891 1.915802
C 6.760298 7.179797 1.959036
C 4.153721 5.803441 2.365270
N 5.476587 3.459298 2.346989
N 6.854701 5.834306 2.282217
N 5.504461 7.859895 1.981646
N 3.040098 3.604756 1.969852
N 7.905548 3.638494 1.932544
Tc 5.517996 5.042908 3.454153
