31
Title                                   
C -0.006286 1.791644 5.987286
C 1.221946 2.529252 5.985587
C 1.218769 3.961914 5.989008
C -0.029735 4.692102 6.040642
C 0.006729 10.331416 6.106092
C 1.253747 12.443469 5.970900
C 0.012684 14.610723 5.956515
C 1.240348 15.336704 5.951915
C 1.235230 16.770505 5.961090
C 0.017532 13.169196 5.972088
C 2.463247 1.800003 5.966677
C 3.703617 2.507040 5.975042
C 3.695081 3.941138 5.971665
C 2.468019 0.362255 5.961392
C 3.696212 6.747673 6.010057
C 3.719540 8.271914 6.064753
C 2.466159 4.659689 5.920104
C 2.504919 10.304811 5.972549
C 3.716240 12.478200 5.976678
C 2.471678 14.615321 5.944319
C 3.712231 15.327182 5.951561
C 3.706460 16.767845 5.959769
C 2.476870 13.174946 5.950408
C 3.726131 11.058840 6.022347
C -0.001915 0.358948 5.972103
C 4.906996 8.950519 6.259161
C 2.521585 6.065249 5.825749
N 2.546151 8.956876 5.881120
N -0.079301 6.058205 6.153582
N 1.258492 11.023671 6.003407
Pd 1.237120 7.490898 6.037633
