32
Title                                   
C 0.556496 0.781387 1.686694
C 9.188414 1.482288 1.727099
C 0.548434 7.900330 1.688095
C 9.181975 2.905513 1.793913
C 0.554178 5.037308 1.722052
C 9.198950 5.750296 1.800349
C 0.560200 3.616386 1.753373
C 9.192891 7.176826 1.763972
C 3.016222 0.772905 1.742281
C 1.791298 1.495040 1.713218
C 3.003709 7.903979 1.765357
C 1.810825 2.922927 1.761480
C 3.012111 5.082441 1.890641
C 1.775663 5.762542 1.728579
C 3.059878 3.638060 1.867240
C 1.774261 7.188447 1.711270
C 5.483769 0.726459 1.892288
C 4.257352 1.455596 1.823670
C 5.476905 7.861422 2.016219
C 4.293138 2.872322 1.917825
C 4.206182 7.177759 1.969122
C 7.962907 0.757064 1.773267
C 6.724720 1.441984 1.854870
C 7.960957 7.886572 1.827922
C 6.709364 2.854326 1.970477
C 7.984082 5.042798 2.057585
C 6.866330 5.818366 2.426180
C 7.946450 3.606388 1.964138
C 6.747746 7.179759 2.086187
N 4.142078 5.822923 2.127867
N 5.502582 3.489879 2.109977
Mn 5.443697 5.000898 3.380293
