32
Title                                   
C 0.557870 0.780762 1.627615
C 9.187652 1.482889 1.683019
C 0.550706 7.902052 1.628948
C 9.180338 2.907764 1.786920
C 0.559760 5.038656 1.723095
C 9.197029 5.751332 1.779254
C 0.562242 3.618180 1.756166
C 9.186530 7.177886 1.695335
C 3.016116 0.770634 1.696261
C 1.797815 1.495444 1.680040
C 3.015119 7.905075 1.711494
C 1.815727 2.924765 1.771345
C 3.008938 5.082479 1.965062
C 1.784817 5.761464 1.744555
C 3.065192 3.639212 1.937562
C 1.782982 7.188216 1.683424
C 5.483758 0.719784 1.900270
C 4.261540 1.446180 1.844832
C 4.283095 2.849991 2.020278
C 4.223291 7.190254 1.941052
C 7.966026 0.758872 1.703778
C 6.720870 1.429915 1.860336
C 7.949135 7.889870 1.727741
C 6.716672 2.836445 2.049747
C 7.986844 5.052928 2.043999
C 6.837023 5.836795 2.385949
C 7.943835 3.608218 1.983852
C 6.740113 7.179275 1.979582
N 4.129221 5.869490 2.280462
N 5.499430 3.425554 2.354851
N 5.469743 7.863028 1.956730
Os 5.454336 5.027783 3.409947
