31
Title                                   
C -0.020260 1.804786 5.881130
C 1.206718 2.531957 5.897493
C 1.197476 3.966503 5.967091
C -0.035059 4.695907 6.054504
C 0.029711 10.292584 6.070369
C 1.246044 12.467278 5.904081
C 0.001291 14.625695 5.861801
C 1.235378 15.345183 5.854380
C 1.226124 16.780660 5.852963
C 0.009518 13.190352 5.887606
C 2.450124 1.813459 5.863473
C 3.690162 2.527381 5.880135
C 3.681386 3.964065 5.926406
C 2.458051 0.375762 5.850534
C 3.699499 6.740741 6.122495
C 3.727214 8.192264 6.195097
C 2.434306 4.671967 5.927665
C 2.487443 10.326078 5.989914
C 3.723486 12.465507 5.899415
C 2.473582 14.622500 5.854537
C 3.705829 15.344847 5.851364
C 3.696773 16.782626 5.848774
C 2.482940 13.185139 5.874836
C 3.732540 11.026020 5.962966
C 1.252187 11.038056 5.981876
C -0.012663 0.369555 5.858542
C 2.505727 8.910476 6.123007
C 0.030146 8.869844 6.285099
C 2.480049 6.084529 5.953524
N -0.051586 6.071993 6.289395
W 1.398278 7.474435 6.930727
