25
Title                                   
C 7.794222 1.755795 1.908950
C 7.771416 4.289925 1.906084
C 7.794215 6.823748 1.909211
C 1.680487 0.710300 1.909511
C 0.635550 1.755770 1.909253
C 1.680413 7.869255 1.909640
C 1.344157 5.543538 1.907031
C 0.658198 4.289921 1.906526
C 1.343994 3.036117 1.906777
C 0.635573 6.823712 1.909448
C 4.214672 0.732684 1.907082
C 2.961275 1.419547 1.907121
C 4.214624 7.846951 1.907214
C 2.961247 7.160240 1.907296
C 6.749274 0.710352 1.909140
C 5.468199 1.419508 1.906575
C 6.749413 7.869316 1.909208
C 7.085486 5.543620 1.906207
C 7.085506 3.036155 1.906019
C 5.468255 7.160136 1.906621
C 2.752632 2.826891 1.904915
C 2.752700 5.752873 1.904935
C 5.676959 2.826760 1.903832
C 5.677021 5.752938 1.904019
Au 4.215051 4.289959 1.901485
