32
Title                                   
C 0.555804 0.779616 1.699398
C 9.192042 1.497667 1.704313
C 0.571739 7.892405 1.683808
C 9.178787 2.932027 1.733767
C 0.557644 5.060331 1.771550
C 0.548923 3.633351 1.778246
C 9.217255 7.182209 1.667513
C 3.026305 0.750763 1.794986
C 1.798493 1.478020 1.782118
C 1.792156 2.907604 1.876829
C 2.993652 5.028580 2.152431
C 1.788643 5.762874 1.865955
C 3.011496 3.595102 2.118664
C 1.810118 7.186763 1.769987
C 5.493477 0.736662 1.847152
C 5.494270 7.858090 1.887502
C 4.256454 2.836551 2.185093
C 4.237198 7.158102 2.061373
C 7.962147 0.768488 1.698123
C 6.710936 1.473975 1.790602
C 7.975483 7.897279 1.681635
C 6.717248 2.904668 1.973002
C 7.953240 5.104232 1.749243
C 7.940960 3.650003 1.812077
C 6.756026 7.159981 1.765286
C 4.127951 5.831040 2.425095
C 5.480127 3.449106 2.388668
N 6.824518 5.795210 1.767236
N 3.022901 7.897373 1.792930
N 4.240790 1.421975 1.897978
N 9.215154 5.768375 1.697158
Ag 5.481826 5.012767 3.893784
