32
Title                                   
C 0.553642 0.783448 1.627561
C 9.183645 1.491641 1.735465
C 0.552550 7.900789 1.578783
C 9.168995 2.920970 1.904620
C 0.553749 5.039324 1.731226
C 9.196131 5.753337 1.800726
C 0.552355 3.624076 1.801370
C 9.188837 7.178651 1.654900
C 3.013466 0.766801 1.662080
C 1.793317 1.489642 1.687347
C 3.018700 7.899261 1.637234
C 1.803622 2.927640 1.800249
C 3.013395 5.078470 1.901774
C 1.782990 5.753563 1.685448
C 3.042041 3.623784 1.976650
C 1.785187 7.181994 1.606646
C 5.483417 0.715587 1.868511
C 4.259471 1.432759 1.822441
C 4.264277 2.827655 2.141202
C 5.450443 3.363500 2.651672
C 4.222601 7.165099 1.855174
C 7.965292 0.770340 1.715996
C 6.720971 1.433486 1.919350
C 7.959779 7.899220 1.675512
C 6.708391 2.818705 2.295474
C 8.002475 5.082350 2.206263
C 6.892852 5.916523 2.527221
C 7.954910 3.610638 2.210410
C 6.765300 7.188370 2.001701
N 4.153339 5.840427 2.078898
N 5.480316 7.848334 1.914254
Zn 5.447307 5.084805 3.397341
