32
Title                                   
C 0.551495 0.779505 1.711335
C 9.184538 1.478149 1.785683
C 0.541298 7.902526 1.689864
C 9.187711 2.906279 1.865407
C 0.551214 5.042697 1.747949
C 9.195514 5.752761 1.859667
C 0.556549 3.623294 1.767585
C 9.185893 7.178290 1.796332
C 3.015875 0.778853 1.707953
C 1.789173 1.494176 1.721265
C 3.001922 7.902560 1.661589
C 1.803554 2.928641 1.745936
C 3.022709 5.090337 1.696100
C 1.772641 5.768338 1.667717
C 3.038610 3.644956 1.812384
C 1.769644 7.193227 1.642593
C 5.478419 0.733857 1.874468
C 4.255350 1.472939 1.822797
C 5.467351 7.855852 1.875428
C 4.260803 2.898681 2.002380
C 5.489342 3.469227 2.425036
C 4.211951 7.153452 1.715956
C 7.956736 0.756425 1.818251
C 6.721617 1.449874 1.931807
C 7.953430 7.880219 1.847696
C 6.736246 2.856329 2.161300
C 7.991033 5.039402 2.138666
C 6.844870 5.810074 2.428025
C 7.972906 3.598893 2.098217
C 6.722073 7.165580 2.039611
N 4.190915 5.791608 1.664795
Pt 5.512380 5.014192 3.589710
