31
Title                                   
C 0.004572 1.810866 5.934877
C 1.233809 2.543690 5.937902
C 1.231116 4.005315 5.974184
C -0.005778 4.722323 6.073478
C -0.020186 10.279630 6.064845
C 1.225197 12.428508 5.952503
C 0.001876 14.604812 5.940897
C 1.234003 15.328338 5.933245
C 1.236511 16.774293 5.927336
C -0.000872 13.154557 5.953217
C 2.471722 1.820204 5.915442
C 3.716301 2.529710 5.922482
C 3.722635 3.975958 5.945851
C 2.470979 0.369807 5.917497
C 3.692653 6.787477 6.004369
C 3.674275 8.231950 5.976271
C 2.487801 4.668597 5.905505
C 2.467584 10.320936 5.882443
C 3.704598 12.454908 5.942438
C 2.462110 14.599881 5.930249
C 3.703632 15.320728 5.930057
C 3.705889 16.770603 5.923618
C 2.459824 13.147818 5.934242
C 3.703104 11.025451 5.956593
C 0.000843 0.363807 5.929449
N 2.490040 8.941230 5.728832
N 4.867959 8.891074 6.355907
N 2.520043 6.061721 5.862216
N -0.056633 6.138578 6.346759
N 1.217302 10.972733 5.961453
Ta 1.463587 7.512644 6.737046
