32
Title                                   
C 0.551167 0.770256 1.636986
C 9.191138 1.479464 1.670711
C 0.563337 7.893652 1.646566
C 9.189344 2.907355 1.727862
C 0.562637 5.041130 1.673530
C 9.203755 5.748335 1.730694
C 0.560808 3.612660 1.687587
C 9.199803 7.176143 1.693905
C 3.013397 0.753076 1.740698
C 1.788784 1.469642 1.679456
C 1.798293 2.898767 1.723882
C 2.996202 5.042559 1.979192
C 1.795038 5.757093 1.729370
C 3.019699 3.610062 1.927713
C 1.794754 7.184698 1.705816
C 5.489376 0.750029 1.856506
C 4.244794 1.451808 1.847439
C 5.475705 7.885231 1.959542
C 4.242109 2.864580 2.035039
C 4.123998 5.823977 2.362367
C 5.484360 3.489813 2.358809
C 4.210262 7.198727 2.029878
C 7.960743 0.762593 1.712767
C 6.727608 1.463530 1.830232
C 7.961048 7.892662 1.749000
C 6.729273 2.872609 2.028180
C 7.991432 5.044293 1.971959
C 6.839010 5.807745 2.314212
C 7.962651 3.611044 1.928710
C 6.739007 7.187120 1.987676
N 3.012931 7.899359 1.776244
Nb 5.511302 5.061176 3.610970
