32
Title                                   
C 0.554818 0.786200 1.735070
C 9.185543 1.491780 1.768563
C 0.554823 7.906259 1.715761
C 9.171690 2.920302 1.816348
C 0.554959 5.038240 1.745698
C 9.200262 5.759836 1.766637
C 0.554909 3.619032 1.787494
C 9.200591 7.184713 1.745522
C 3.018890 0.764932 1.781354
C 1.793856 1.491713 1.768452
C 3.010258 7.892069 1.789791
C 1.807651 2.920271 1.816067
C 3.017366 5.073679 1.923839
C 1.779092 5.759969 1.765867
C 3.054503 3.629372 1.918230
C 1.778662 7.184929 1.744615
C 5.489738 0.714247 1.890984
C 4.260830 1.446945 1.856938
C 5.489779 7.837713 1.954931
C 4.286966 2.867292 1.960359
C 4.217747 7.155352 1.947702
C 7.960751 0.764939 1.782017
C 6.718837 1.446809 1.857147
C 7.969326 7.892152 1.791220
C 6.692465 2.867069 1.960335
C 7.962349 5.073397 1.924970
C 7.924893 3.629068 1.918984
C 6.761932 7.155389 1.949023
N 4.152075 5.805872 2.111355
N 5.489743 3.491827 2.120014
N 6.828407 5.806018 2.113130
Pt 5.490052 5.033805 3.585085
