32
Title                                   
C 0.557633 0.792583 1.768703
C 9.186361 1.498597 1.816486
C 0.561681 7.905004 1.750894
C 9.169033 2.927223 1.897106
C 0.550648 5.044283 1.813386
C 9.201825 5.758661 1.848619
C 0.567868 3.619265 1.855050
C 9.201120 7.190060 1.792381
C 3.011744 0.754514 1.769946
C 1.802727 1.499787 1.786990
C 3.022288 7.892515 1.771796
C 1.808769 2.920444 1.835963
C 3.036839 5.072776 1.851814
C 1.784991 5.743343 1.782800
C 1.790308 7.171537 1.755264
C 5.484728 0.710224 1.885725
C 4.257598 1.428800 1.842752
C 4.292518 2.849698 1.968318
C 4.218499 7.135086 1.854596
C 7.965836 0.771253 1.801571
C 6.713062 1.438878 1.893877
C 7.968988 7.907182 1.798106
C 6.672820 2.854745 2.053432
C 7.955463 5.091126 2.038856
C 7.910605 3.637199 2.027405
C 6.768189 7.164357 1.956528
N 4.182481 5.790443 1.914852
N 5.453447 3.469614 2.221780
N 6.826427 5.851030 2.222377
N 5.496609 7.828071 1.893727
N 3.077574 3.623241 1.874645
Cu 5.435086 5.069650 3.367757
