32
Title                                   
C 0.557161 0.787879 1.669591
C 9.187619 1.493349 1.688632
C 0.567859 7.906220 1.676190
C 9.178631 2.926207 1.750310
C 0.564100 5.051867 1.699634
C 9.205769 5.760263 1.768931
C 0.562122 3.622000 1.722959
C 9.207221 7.188233 1.731202
C 3.022539 0.755848 1.769500
C 1.804827 1.488719 1.717098
C 1.813220 2.915342 1.757580
C 3.003789 5.061191 1.981179
C 1.795878 5.769930 1.746272
C 3.065975 3.622784 1.937484
C 1.789345 7.194689 1.724815
C 5.489571 0.716098 1.880841
C 5.473210 7.849387 1.998079
C 4.262567 2.829413 2.045614
C 4.204420 7.177926 2.045746
C 7.957121 0.763558 1.701671
C 6.707408 1.447962 1.800140
C 7.969018 7.896593 1.764642
C 6.711904 2.850063 1.985076
C 7.986228 5.073438 1.989046
C 7.919764 3.631043 1.922363
C 6.761107 7.180599 2.000632
N 4.076911 5.864356 2.393633
N 5.480238 3.389901 2.383621
N 6.870782 5.839219 2.333750
N 3.017502 7.913499 1.788953
N 4.235345 1.425461 1.876551
Mo 5.484610 5.018152 3.461764
