31
Title                                   
C 0.553124 0.768915 1.869991
C 9.192583 1.476448 1.877621
C 0.555048 7.901409 1.869122
C 9.223567 2.901077 1.878385
C 0.560236 5.040148 1.867913
C 9.228002 5.774298 1.876313
C 0.564119 3.617388 1.868371
C 9.202924 7.193934 1.876630
C 3.010529 0.767799 1.894663
C 1.777166 1.471144 1.878018
C 3.008279 7.888220 1.893732
C 1.769503 2.898798 1.877449
C 2.977619 5.063139 1.899102
C 1.761806 5.758900 1.876844
C 2.985044 3.590896 1.899616
C 1.777424 7.187529 1.877000
C 5.480930 0.758996 1.920169
C 4.226673 1.502247 1.915041
C 5.482873 7.849510 1.919483
C 4.216666 7.131976 1.913279
C 7.955517 0.770025 1.894480
C 6.730155 1.500726 1.916934
C 7.961893 7.885332 1.893680
C 6.810905 2.917290 1.929069
C 8.025564 5.076796 1.901411
C 8.020025 3.618421 1.903059
C 6.753777 7.128752 1.914964
N 4.155113 2.883079 1.923181
N 6.847202 5.751544 1.925776
N 4.135416 5.770520 1.920714
Pd 5.491690 4.296789 1.947291
