32
Title                                   
C 0.539906 0.802807 1.803135
C 9.159141 1.507014 1.803082
C 0.539709 7.911207 1.801487
C 9.148042 2.932320 1.802828
C 0.540334 5.053402 1.798336
C 9.180973 5.751084 1.798007
C 0.540418 3.624346 1.800332
C 9.177473 7.182995 1.799285
C 3.001681 0.760420 1.806628
C 1.790127 1.506870 1.804064
C 3.005977 7.895637 1.804366
C 1.801664 2.932116 1.802036
C 3.042606 5.093787 1.799499
C 1.768790 5.750937 1.798378
C 1.771228 7.182741 1.801338
C 5.474609 0.707236 1.805373
C 4.249055 1.441685 1.806919
C 4.312258 2.875564 1.806803
C 4.204987 7.118925 1.801768
C 7.947466 0.760741 1.802772
C 6.700292 1.441542 1.803928
C 7.942787 7.896027 1.800531
C 6.636990 2.875574 1.805660
C 7.907059 5.093726 1.801619
C 6.743835 7.119217 1.802578
N 4.179345 5.785264 1.798593
N 5.474675 3.525585 1.808833
N 6.770738 5.785703 1.805806
N 5.474457 7.815953 1.804283
N 3.065731 3.640585 1.803161
N 7.883671 3.640406 1.805641
Zn 5.957739 4.999776 5.826433
