31
Title                                   
C -0.046917 1.811496 5.886897
C 1.178337 2.540142 5.910497
C 1.152465 3.977207 5.987075
C -0.096016 4.689840 6.063122
C 0.097846 10.284475 5.962649
C 1.297270 12.446715 5.919486
C 0.024318 14.613832 5.863552
C 1.251031 15.338690 5.864717
C 1.223803 16.777900 5.861775
C 0.051217 13.172596 5.880253
C 2.424187 1.814187 5.872556
C 3.653852 2.532945 5.885598
C 3.623056 3.973769 5.936741
C 2.450583 0.373339 5.858533
C 3.657643 6.758541 6.149061
C 3.763317 8.228510 6.151389
C 2.377991 4.703817 5.960936
C 2.572193 10.295991 6.073219
C 3.765311 12.454339 5.894027
C 2.495244 14.615152 5.870374
C 3.723200 15.337340 5.858370
C 3.695465 16.779155 5.855562
C 2.522087 13.175727 5.896867
C 3.796252 11.013512 5.943515
C 1.323773 11.009687 5.994371
C -0.020479 0.371781 5.864160
C 0.051981 8.852837 5.992084
C 2.423375 6.135847 5.998349
N 2.598921 8.936508 6.319678
N -0.122096 6.049199 6.307171
Tc 1.233203 7.493072 6.818614
