32
Title                                   
C 0.000004 1.790134 5.500349
C 1.235573 2.495520 5.634835
C 1.235466 3.888662 5.974383
C 0.002668 5.928358 6.647264
C -0.007294 4.575785 6.153126
C -0.032586 10.442398 6.359534
C 1.235488 12.500824 5.788441
C 0.003378 14.637068 5.419260
C 1.235535 15.353959 5.358486
C 1.235580 16.782638 5.320517
C 0.006886 13.221998 5.624651
C 2.471120 1.790194 5.500212
C 3.707646 2.495020 5.612752
C 3.707527 3.889847 5.926660
C 2.471846 0.367312 5.346829
C 2.468348 5.928318 6.647185
C 3.707564 6.693462 6.732124
C 3.707566 8.150946 6.729745
C 2.478235 4.575753 6.153135
C 2.503601 10.442314 6.359521
C 3.707526 12.537245 5.750292
C 2.467605 14.637048 5.419228
C 3.707564 15.347706 5.353702
C 3.707618 16.779589 5.316706
C 2.464095 13.222013 5.624671
C 3.707514 11.173746 6.117229
C 1.235531 11.106954 6.165614
C -0.000580 0.367256 5.346933
C 2.653176 9.117097 6.829343
C 4.762082 9.117113 6.829232
C 1.235575 6.479220 7.051835
Zn 1.235476 8.211826 7.857504
