31
Title                                   
C -0.000672 1.812606 5.943241
C 1.226705 2.549705 5.951623
C 1.219462 4.003477 6.000399
C -0.029399 4.707173 6.103712
C -0.010134 10.276863 6.085009
C 1.236451 12.439505 5.952872
C 0.003771 14.617297 5.924170
C 1.237863 15.339079 5.915984
C 1.235407 16.779378 5.914880
C 0.007293 13.176293 5.942587
C 2.463353 1.819153 5.915514
C 3.706489 2.525507 5.928559
C 3.706735 3.961113 5.955776
C 2.467744 0.375990 5.907734
C 3.677867 6.746088 6.057491
C 3.698155 8.238400 6.042323
C 2.478276 4.680035 5.910493
C 2.494099 10.310741 5.928110
C 3.716342 12.461450 5.931636
C 2.471640 14.613121 5.911107
C 3.708198 15.337505 5.911331
C 3.706020 16.780980 5.910212
C 2.471860 13.169599 5.920437
C 3.721988 11.026352 5.955760
C 1.234800 10.987665 5.999311
C 0.000081 0.371266 5.923635
N 2.547895 8.940463 5.862261
N 4.875750 8.888620 6.310909
N 2.532828 6.051212 5.767930
N -0.101536 6.085944 6.399289
Tc 1.381163 7.485568 6.516905
