32
Title                                   
C 0.554916 0.787130 1.739354
C 9.183619 1.494855 1.782027
C 0.555136 7.903453 1.718410
C 9.168252 2.923612 1.853622
C 0.555335 5.041878 1.789776
C 9.195431 5.759345 1.799250
C 0.555319 3.620008 1.830919
C 9.195859 7.180663 1.749644
C 3.016298 0.761759 1.776078
C 1.795914 1.494424 1.780083
C 3.020656 7.899641 1.761586
C 1.811488 2.923047 1.847882
C 3.031207 5.077511 1.940488
C 1.784871 5.759318 1.789498
C 3.066905 3.634672 1.951169
C 1.784213 7.180612 1.743406
C 5.489890 0.707140 1.904743
C 4.266741 1.432349 1.871487
C 4.299095 2.854415 1.997061
C 4.218535 7.149307 1.907472
C 7.963377 0.762213 1.777117
C 6.712894 1.432847 1.872623
C 7.959159 7.900000 1.766258
C 6.680750 2.854640 2.003119
C 7.949357 5.078163 1.955219
C 7.912943 3.635093 1.961762
C 6.762015 7.149732 1.915973
N 4.183018 5.826724 2.098925
N 5.489355 3.483912 2.199945
N 6.798983 5.828408 2.117077
N 5.489871 7.832688 1.947662
Mn 5.482360 5.041632 3.563863
