32
Title                                   
C 0.555209 0.764334 1.713785
C 9.190054 1.478101 1.756976
C 0.555399 7.887637 1.707380
C 9.182272 2.908536 1.833134
C 0.555110 5.036205 1.804621
C 9.185141 5.748852 1.819476
C 0.554928 3.615135 1.813879
C 9.185189 7.172493 1.748364
C 3.013128 0.762472 1.746317
C 1.789871 1.477401 1.753165
C 3.024644 7.897282 1.742426
C 1.796885 2.907690 1.829182
C 3.034413 5.042996 1.967608
C 1.794652 5.748369 1.815418
C 3.027591 3.606641 1.971797
C 1.795204 7.172084 1.744498
C 5.490176 0.751880 1.852527
C 4.255340 1.449296 1.855597
C 4.256868 2.858356 2.062970
C 4.220772 5.830064 2.116419
C 5.488571 3.451183 2.380496
C 4.264774 7.199309 1.876770
C 7.967080 0.763202 1.751877
C 6.724756 1.449982 1.860218
C 7.955861 7.897944 1.747933
C 6.722301 2.859445 2.067320
C 7.945421 5.044132 1.974951
C 6.759390 5.831507 2.127390
C 7.951719 3.607724 1.978094
C 6.716017 7.199874 1.882635
N 5.490409 7.902497 1.842567
Ni 5.484620 5.088568 3.167712
