32
Title                                   
C 0.551946 0.785133 1.727484
C 9.176127 1.496303 1.761807
C 0.558756 7.893954 1.689741
C 9.175383 2.921306 1.833849
C 0.554710 5.041728 1.751847
C 9.195608 5.745339 1.731353
C 0.549058 3.614813 1.828895
C 9.193892 7.179581 1.701880
C 3.016363 0.756278 1.763935
C 1.796259 1.484331 1.786557
C 3.034195 7.886141 1.746738
C 1.791790 2.905901 1.878225
C 3.012692 5.035530 1.999832
C 1.786915 5.733611 1.769266
C 1.797368 7.169037 1.719848
C 5.494152 0.743420 1.869885
C 4.251553 1.451979 1.872206
C 4.254155 2.866032 2.067405
C 4.246911 7.163430 1.935494
C 7.959553 0.767752 1.733465
C 6.720365 1.468054 1.826286
C 7.956887 7.900503 1.727491
C 6.701856 2.883746 1.995530
C 7.955969 5.070307 1.874202
C 6.754088 7.165423 1.872369
C 4.170784 5.790623 2.307596
C 5.482637 3.511568 2.376717
N 6.808487 5.798955 2.075263
N 5.502548 7.850579 1.912598
N 3.018684 3.602255 2.027467
N 7.930661 3.636711 1.924793
W 5.533412 5.090866 3.623475
