32
Title                                   
C -0.009882 1.784319 5.934681
C 1.225537 2.505558 5.973905
C 1.215176 3.932275 6.067127
C -0.023756 6.039785 6.238256
C -0.030518 4.643233 6.082859
C 0.012117 10.247084 5.806606
C 1.273254 12.425888 5.883644
C 0.025785 14.598547 5.869526
C 1.254954 15.325123 5.882680
C 1.242405 16.758482 5.896251
C 0.041108 13.166851 5.859755
C 2.462871 1.781315 5.939162
C 3.692122 2.507817 5.950654
C 3.677434 3.935110 6.007841
C 2.475319 0.348841 5.906132
C 2.415539 6.087382 6.249670
C 3.873139 8.247840 6.223705
C 2.444561 4.666879 6.100002
C 2.567679 10.309574 5.995185
C 3.746452 12.459205 5.884682
C 2.490711 14.599985 5.887276
C 3.725903 15.319596 5.880645
C 3.714320 16.754316 5.891469
C 2.499565 13.162830 5.898166
C 3.758858 11.044517 5.915995
C 1.290373 10.969500 5.865820
C 0.001966 0.352161 5.901817
N 2.650818 8.957087 6.346059
N 4.853868 8.865257 5.285074
N 1.170313 6.727254 6.508413
N 3.683896 6.775205 6.189036
W 0.835446 8.748507 7.129209
