31
Title                                   
C 0.542242 0.763204 1.710899
C 9.173994 1.492803 1.731497
C 0.567400 7.891493 1.710907
C 9.189929 2.921051 1.715849
C 0.560630 5.039534 1.674569
C 9.217669 5.782346 1.742331
C 0.549369 3.615301 1.674746
C 9.205982 7.204675 1.764758
C 3.016494 0.741599 1.867019
C 1.773460 1.449982 1.761535
C 3.047773 7.850023 1.836457
C 1.761709 2.872148 1.739643
C 3.004588 4.996200 1.829778
C 1.789432 5.734020 1.712988
C 2.973551 3.553472 1.898135
C 1.805260 7.161987 1.728121
C 5.476243 0.780695 2.061547
C 4.211438 1.491028 2.046881
C 5.503747 7.873237 2.061077
C 4.240919 5.661994 1.966989
C 4.283950 7.107097 1.961074
C 7.931809 0.804333 1.841814
C 6.696059 1.547522 1.967332
C 7.963011 7.912580 1.871898
C 6.739615 2.992941 1.975681
C 8.006412 5.100728 1.903525
C 7.975312 3.658505 1.835051
C 6.768359 7.162163 2.052017
N 4.138655 2.875623 2.176610
N 6.841515 5.777482 2.184517
Tc 5.484847 4.326276 2.814056
