32
Title                                   
C 0.554709 0.786738 1.702973
C 9.185846 1.494934 1.743988
C 0.554841 7.902568 1.707244
C 9.173463 2.920851 1.821767
C 0.555184 5.040809 1.780870
C 9.196862 5.757668 1.810537
C 0.555202 3.618723 1.804851
C 9.195028 7.183678 1.754927
C 3.015571 0.766144 1.735343
C 1.793587 1.494832 1.737221
C 3.021558 7.899826 1.755181
C 1.806270 2.920885 1.814529
C 3.013076 5.073843 1.979892
C 1.782801 5.757804 1.804236
C 3.062630 3.631983 1.948051
C 1.784418 7.183793 1.750468
C 5.489971 0.714449 1.900074
C 4.260240 1.435171 1.856039
C 4.277402 2.845769 2.008161
C 4.223921 7.172470 1.939146
C 7.964463 0.766043 1.747724
C 6.719924 1.435193 1.864780
C 7.958190 7.899740 1.764898
C 6.702443 2.845732 2.016558
C 7.967472 5.073706 1.993339
C 7.917638 3.631572 1.959817
C 6.756152 7.172473 1.948356
N 4.154214 5.843521 2.235110
N 5.488982 3.448235 2.287077
N 6.826589 5.843922 2.248355
N 5.489938 7.837085 1.941724
V 5.485178 5.011026 3.350265
