32
Title                                   
C 0.556727 0.775831 1.662309
C 9.190647 1.477998 1.722555
C 0.554016 7.895698 1.649393
C 9.186895 2.904212 1.802910
C 0.555430 5.035462 1.715736
C 9.203108 5.751122 1.787934
C 0.559133 3.615872 1.742379
C 9.194118 7.175289 1.722696
C 3.018166 0.770949 1.714266
C 1.791865 1.486761 1.698616
C 3.008464 7.898146 1.722678
C 1.798711 2.919318 1.757451
C 2.997915 5.065603 1.886812
C 1.777482 5.758558 1.717748
C 3.031773 3.629157 1.904585
C 1.776973 7.185935 1.678395
C 5.484362 0.737150 1.876201
C 4.255475 1.460360 1.836551
C 5.479465 7.863057 1.935625
C 4.256199 2.871310 2.033282
C 5.490514 3.453133 2.403373
C 4.217402 7.182223 1.897618
C 7.963548 0.760812 1.758725
C 6.729285 1.448345 1.890278
C 7.967050 7.886981 1.782233
C 6.740224 2.855699 2.108790
C 7.997667 5.039413 2.060440
C 6.864809 5.821635 2.364896
C 7.971670 3.599926 2.022169
C 6.749811 7.182697 2.013369
N 4.144590 5.813925 2.071759
Ir 5.420269 5.088612 3.371728
