31
Title                                   
C 0.556463 0.771787 1.674859
C 9.184393 1.483694 1.716305
C 0.560460 7.894005 1.668889
C 9.200797 2.912564 1.710584
C 0.560181 5.038811 1.630520
C 9.207998 5.765161 1.706040
C 0.558640 3.616955 1.632640
C 9.197559 7.190436 1.713677
C 3.023339 0.761308 1.821406
C 1.784410 1.469772 1.717003
C 3.025399 7.876511 1.803309
C 1.782008 2.904172 1.699108
C 3.006449 5.045126 1.833112
C 1.781881 5.744000 1.683075
C 3.003325 3.590018 1.865527
C 1.788406 7.178253 1.698566
C 5.475300 0.766445 2.059115
C 4.232084 1.491946 2.006112
C 5.483603 7.847609 2.040562
C 4.236728 7.127215 1.959700
C 7.951155 0.775665 1.826603
C 6.729836 1.498943 2.027418
C 7.962028 7.889996 1.824217
C 6.788695 2.913794 2.164387
C 7.997519 5.081584 1.904914
C 7.981997 3.619473 1.915298
C 6.756223 7.147660 2.006340
N 4.170511 2.887819 2.128144
N 6.829092 5.770498 2.130080
N 4.181764 5.742983 2.031505
Y 5.443132 4.337840 3.220285
