31
Title                                   
C 0.552781 0.760531 1.799667
C 9.190746 1.467005 1.804668
C 0.552703 7.893478 1.799398
C 9.222118 2.889068 1.778749
C 0.568741 5.037357 1.758671
C 9.222550 5.765015 1.778528
C 0.568700 3.616075 1.759097
C 9.190740 7.187210 1.804543
C 3.019898 0.772699 1.911364
C 1.784299 1.469853 1.834725
C 3.020037 7.880985 1.911008
C 1.785185 2.897948 1.818285
C 3.000026 5.056437 1.918844
C 1.785112 5.755645 1.817441
C 3.000133 3.597301 1.919414
C 1.784241 7.183981 1.834143
C 5.475620 0.778838 2.014726
C 4.227749 1.531374 1.998592
C 5.475528 7.875618 2.014750
C 4.227994 7.122956 1.997659
C 7.943333 0.772850 1.874558
C 6.720507 1.530006 1.961514
C 7.943512 7.881712 1.874806
C 6.771659 2.965270 1.972525
C 8.022980 5.046504 1.848729
C 6.772417 5.690200 1.973771
C 8.022614 3.608020 1.848176
C 6.720859 7.124996 1.962268
N 4.189952 2.921553 2.030999
N 4.189783 5.732903 2.029824
Co 5.488859 4.328656 2.167861
