32
Title                                   
C 0.009581 1.772910 5.956530
C 1.248253 2.488641 5.992936
C 1.249014 3.912039 6.076782
C 0.023737 6.035721 6.189502
C 0.008675 4.624383 6.089317
C -0.019757 10.298218 5.826895
C 1.247805 12.452030 5.904943
C 0.015447 14.610186 5.909933
C 1.248484 15.330107 5.915136
C 1.247631 16.758546 5.921647
C 0.019551 13.182479 5.901390
C 2.483965 1.772291 5.961340
C 3.716953 2.491022 5.975241
C 3.715080 3.917613 6.034664
C 2.484305 0.342906 5.929267
C 2.463601 6.061732 6.239848
C 3.723132 6.806312 6.157372
C 3.732045 8.245540 5.926494
C 2.483271 4.635235 6.114914
C 2.515809 10.344710 5.941502
C 3.721291 12.480547 5.911540
C 2.480594 14.611660 5.919006
C 3.719425 15.324183 5.914644
C 3.719196 16.754249 5.918516
C 2.477439 13.178524 5.922585
C 3.722642 11.067779 5.911467
C 1.251460 10.998020 5.861035
C 0.010294 0.345474 5.925877
N 2.604263 8.963423 6.216265
N 4.847554 8.908496 5.369135
N 1.235330 6.693466 6.401102
Hf 0.851264 8.638882 7.214475
