32
Title                                   
C 0.007813 1.790465 5.790543
C 1.244648 2.513322 5.847664
C 1.253578 3.942187 6.007214
C 0.055959 6.060334 6.357153
C 0.014569 4.656333 6.089713
C -0.080956 10.333085 6.202855
C 1.199734 12.433348 5.844089
C -0.018267 14.609431 5.735813
C 1.217932 15.331944 5.710710
C 1.228634 16.767084 5.709951
C -0.027125 13.174348 5.808315
C 2.477702 1.792393 5.787152
C 3.719364 2.512291 5.831305
C 3.731662 3.931010 5.960451
C 2.467745 0.359369 5.722609
C 2.480240 6.035099 6.341567
C 3.641055 8.310179 6.431609
C 2.504167 4.648117 6.075465
C 2.455490 10.293656 5.966644
C 3.674124 12.472546 5.838434
C 2.447075 14.606773 5.718992
C 3.689593 15.327622 5.709919
C 3.699999 16.764247 5.706973
C 2.435145 13.170715 5.774380
C 3.665191 11.051714 5.984141
C 1.185555 10.989294 5.984003
C -0.004314 0.357365 5.726065
N 2.567869 8.899002 5.769082
N 4.764196 9.045128 6.748969
N 1.277368 6.639968 6.611146
N 3.737806 6.814720 6.398339
Ni 1.543783 8.414233 7.260034
