32
Title                                   
C 0.554879 0.768862 1.632582
C 9.189581 1.481647 1.690476
C 0.554858 7.891195 1.622399
C 9.184549 2.907892 1.784904
C 0.555002 5.037861 1.723726
C 9.194001 5.750770 1.750493
C 0.554540 3.615103 1.757727
C 9.187964 7.175281 1.676216
C 3.014076 0.762754 1.706603
C 1.789507 1.481521 1.689034
C 3.025457 7.897377 1.712016
C 1.794326 2.908006 1.783821
C 3.007583 5.055826 1.992966
C 1.785848 5.750559 1.751580
C 3.023136 3.613241 1.968607
C 1.791100 7.174996 1.676934
C 5.489328 0.742978 1.872459
C 4.251891 1.447052 1.845142
C 4.253553 2.859325 2.041621
C 4.182859 5.827974 2.273379
C 5.488885 3.486576 2.321305
C 4.242408 7.193673 1.951167
C 7.964919 0.763244 1.707627
C 6.726975 1.447100 1.845871
C 7.953583 7.898092 1.710600
C 6.724706 2.859426 2.042073
C 7.972292 5.055784 1.989408
C 6.797242 5.828780 2.264824
C 7.955469 3.613199 1.968261
C 6.736267 7.194645 1.946883
N 5.489332 7.889378 1.941905
Hf 5.497645 5.031074 3.670889
