32
Title                                   
C 0.000273 1.795925 5.644260
C 1.235340 2.511139 5.729216
C 1.235247 3.923399 5.953964
C 0.013905 5.994901 6.431217
C -0.006011 4.631338 6.066855
C -0.018685 10.381695 6.230372
C 1.235863 12.481833 5.821958
C 0.001347 14.629707 5.587254
C 1.235747 15.348061 5.556057
C 1.235546 16.779823 5.539334
C 0.001850 13.201610 5.713099
C 2.470492 1.795901 5.644289
C 3.707393 2.513624 5.706709
C 3.707286 3.924134 5.894332
C 2.471604 0.368249 5.555037
C 2.456718 5.994901 6.431268
C 3.707499 8.192744 6.466652
C 2.476519 4.631274 6.066905
C 2.490212 10.381840 6.230873
C 3.707848 12.500212 5.790301
C 2.470163 14.629724 5.587311
C 3.707766 15.345597 5.550244
C 3.707588 16.778179 5.533669
C 2.469825 13.201600 5.713183
C 3.707803 11.088204 6.028261
C 1.235791 11.070347 6.107118
C -0.000555 0.368228 5.555032
C 2.542703 8.989746 6.608249
C 4.872518 8.989573 6.607383
N 1.235310 6.580756 6.804801
N 3.707300 6.743560 6.514969
Tc 1.235127 8.279499 7.781125
