32
Title                                   
C 0.002156 1.792095 5.895887
C 1.237146 2.512593 5.952713
C 1.232525 3.943064 6.092629
C 0.016813 6.053911 6.334224
C -0.013078 4.658198 6.132842
C -0.004416 10.273002 5.849624
C 1.255900 12.431733 5.852945
C 0.019714 14.606384 5.814137
C 1.251186 15.328537 5.815816
C 1.245973 16.766640 5.826611
C 0.027298 13.167143 5.829057
C 2.473911 1.791111 5.899722
C 3.707361 2.515165 5.930939
C 3.700242 3.938142 6.033523
C 2.480789 0.356195 5.841619
C 2.429517 6.070841 6.363541
C 3.725108 8.250405 6.087507
C 2.470818 4.663449 6.153126
C 2.532928 10.314786 5.942533
C 3.732392 12.464000 5.848820
C 2.484833 14.604602 5.822686
C 3.722417 15.324027 5.813755
C 3.717657 16.761824 5.822144
C 2.486303 13.163560 5.846313
C 3.738842 11.037693 5.878051
C 1.259741 10.966306 5.873845
C 0.007469 0.357153 5.838889
N 2.612612 8.961079 6.327281
N 4.860783 8.842808 5.550037
N 1.215415 6.694546 6.608775
N 3.697561 6.823584 6.323281
V 0.929418 8.612748 7.248428
