25
Title                                   
C 7.789674 1.764380 1.909086
C 7.763297 4.289485 1.906175
C 7.783122 6.817897 1.909376
C 1.686922 0.721495 1.909567
C 0.646596 1.761607 1.909085
C 1.689641 7.864705 1.909847
C 1.344708 5.540122 1.907325
C 0.666553 4.290192 1.906522
C 1.351927 3.031095 1.906262
C 0.639963 6.815238 1.909650
C 4.214946 0.741466 1.907066
C 2.956230 1.427048 1.906805
C 4.214233 7.838236 1.907145
C 2.964526 7.160063 1.907547
C 6.739988 0.714996 1.909375
C 5.464795 1.419824 1.906736
C 6.742862 7.858129 1.909465
C 7.077814 5.548521 1.906034
C 7.084922 3.039543 1.906124
C 5.473271 7.152650 1.906317
C 2.754217 5.750570 1.905512
C 5.675402 2.829090 1.904363
N 2.733333 2.808172 1.903406
N 5.696548 5.771494 1.903016
Au 4.215049 4.289995 1.902294
