31
Title                                   
C 0.554901 0.762152 1.874504
C 9.198007 1.466602 1.880933
C 0.554783 7.892377 1.874480
C 9.220727 2.895260 1.880260
C 0.555010 5.036894 1.871645
C 9.220836 5.759041 1.879511
C 0.555054 3.617479 1.871803
C 9.197836 7.187750 1.880591
C 3.020894 0.771955 1.897878
C 1.781293 1.466677 1.881498
C 3.020588 7.882399 1.898036
C 1.758830 2.895376 1.881065
C 2.958295 5.055460 1.900319
C 1.758577 5.759092 1.881289
C 2.958308 3.598573 1.900059
C 1.781165 7.187742 1.881744
C 5.489494 0.800316 1.917685
C 4.236783 1.522174 1.913125
C 5.489276 7.853771 1.917753
C 4.236479 7.131955 1.913411
C 7.958186 0.771915 1.897271
C 6.742527 1.522277 1.912913
C 7.958190 7.882421 1.896994
C 8.021424 5.055446 1.898155
C 8.021629 3.598680 1.898711
C 6.742327 7.132032 1.912338
N 4.142835 2.911042 1.918867
N 4.142478 5.743214 1.919144
N 6.837185 2.911081 1.918053
N 6.837264 5.743321 1.917833
Pt 5.490202 4.327567 1.931430
