31
Title                                   
C 0.002316 1.770972 5.936220
C 1.237895 2.490062 5.946443
C 1.237965 3.915707 5.989179
C -0.004618 4.626457 6.015367
C 0.001988 10.368876 6.001619
C 1.237557 12.476564 5.966881
C 0.007004 14.623437 5.943562
C 1.237746 15.339030 5.941829
C 1.237794 16.763315 5.935422
C 0.005451 13.195589 5.952043
C 2.473530 1.771036 5.936559
C 3.710045 2.477049 5.945259
C 3.710087 3.900784 5.989778
C 2.473801 0.344512 5.932929
C 3.709521 6.770002 5.977935
C 3.709041 8.273338 5.998165
C 2.480666 4.626301 6.016796
C 2.472097 10.368864 5.999511
C 3.709690 12.503039 5.948233
C 2.468474 14.623521 5.943391
C 3.709882 15.330692 5.937575
C 3.709837 16.760202 5.932836
C 2.469971 13.195555 5.951659
C 3.709335 11.090970 5.963807
C 0.001851 0.344473 5.932729
C 2.507708 8.975380 6.060091
C 4.910009 8.975750 6.065960
C 2.533183 6.035580 6.080003
C -0.057811 6.036098 6.076250
N 1.237209 11.084844 5.996729
Pt 1.237273 7.500149 6.386440
