32
Title                                   
C 0.551029 0.792493 1.686439
C 9.188472 1.493044 1.721756
C 0.565807 7.908791 1.682311
C 9.175476 2.924216 1.791460
C 0.560525 5.045234 1.712861
C 9.206899 5.758728 1.759424
C 0.560860 3.618542 1.753324
C 9.208436 7.184301 1.725699
C 3.015141 0.754614 1.770186
C 1.797029 1.486666 1.731819
C 1.815149 2.915569 1.786393
C 2.998475 5.071596 1.984670
C 1.784832 5.768158 1.753040
C 3.059784 3.636284 1.952007
C 1.783221 7.191672 1.732348
C 5.492795 0.711080 1.894148
C 4.252438 1.430669 1.873688
C 5.478713 7.834282 1.991045
C 4.276452 2.842167 2.034326
C 4.192501 7.176576 2.035437
C 7.961447 0.761269 1.736966
C 6.720037 1.438469 1.843800
C 7.970057 7.893911 1.769649
C 6.699022 2.850583 2.021162
C 7.984255 5.074376 1.991171
C 7.926193 3.630392 1.957303
C 6.768947 7.162265 2.002916
N 4.083556 5.858922 2.332312
N 5.489449 3.434716 2.306015
N 6.875448 5.827545 2.298443
N 3.009316 7.900923 1.789818
Fe 5.482002 5.033137 3.291562
