32
Title                                   
C 0.553981 0.787652 1.790247
C 9.176916 1.506995 1.787973
C 0.570714 7.898572 1.761923
C 9.166850 2.934003 1.824439
C 0.557671 5.049194 1.835648
C 9.204589 5.759185 1.745330
C 0.542159 3.616486 1.877922
C 9.205793 7.190649 1.711966
C 3.023676 0.742141 1.833869
C 1.799064 1.478112 1.855079
C 3.050133 7.868963 1.839517
C 1.783807 2.899086 1.944171
C 3.019909 5.021702 2.095251
C 1.790676 5.732987 1.878604
C 1.807903 7.164813 1.826484
C 5.499024 0.742419 1.856589
C 4.255793 1.447742 1.909289
C 4.248460 2.867449 2.115517
C 4.282773 7.137821 1.981064
C 7.960229 0.782335 1.745159
C 6.712378 1.485401 1.816792
C 7.968844 7.916270 1.701867
C 6.690001 2.923134 1.974060
C 7.940707 5.104445 1.689705
C 6.773276 7.149297 1.670737
C 4.193231 5.753254 2.332160
C 5.461000 3.537749 2.345787
N 6.797864 5.803213 1.567429
N 5.516040 7.842930 1.827044
N 3.007559 3.592852 2.091894
N 7.916258 3.657733 1.819737
Pd 5.456484 5.016606 3.660245
