32
Title                                   
C 0.554967 0.789886 1.698840
C 9.184924 1.494667 1.744914
C 0.554991 7.908822 1.673251
C 9.169734 2.923065 1.815118
C 0.554988 5.038980 1.722615
C 9.202630 5.760110 1.745583
C 0.555099 3.620465 1.779489
C 9.201676 7.185937 1.712601
C 3.017553 0.764971 1.756858
C 1.794671 1.494432 1.744101
C 3.008150 7.893590 1.765596
C 1.809798 2.922770 1.814541
C 3.009585 5.080746 1.952945
C 1.776636 5.760241 1.744521
C 3.056089 3.630020 1.949617
C 1.777809 7.186074 1.711162
C 5.489964 0.707385 1.895414
C 4.259860 1.441038 1.852082
C 5.489916 7.831537 1.983956
C 4.290634 2.856626 1.995161
C 4.206676 7.155707 1.973700
C 7.962282 0.764956 1.758419
C 6.720080 1.441039 1.852689
C 7.971631 7.893583 1.768260
C 6.689197 2.856691 1.995422
C 7.970000 5.080706 1.955295
C 7.923526 3.630021 1.950573
C 6.773179 7.155532 1.976390
N 4.131972 5.815274 2.184664
N 5.489829 3.471643 2.200851
N 6.848140 5.815203 2.188210
Zn 5.487577 5.039474 3.450662
