32
Title                                   
C 0.551619 0.762462 1.666697
C 9.190963 1.482421 1.679669
C 0.562838 7.882365 1.684536
C 9.189144 2.908455 1.724965
C 0.556330 5.052813 1.732508
C 0.551238 3.624176 1.721849
C 9.201489 7.164456 1.730152
C 3.019258 0.760101 1.760006
C 1.793360 1.475745 1.713866
C 1.790970 2.904714 1.763009
C 2.999650 5.033462 2.021391
C 1.787772 5.762133 1.797697
C 3.021969 3.601421 1.961084
C 1.803632 7.188280 1.746629
C 5.486229 0.757897 1.851604
C 5.473355 7.893361 1.984651
C 4.247528 2.850349 2.054891
C 4.221590 7.190237 2.067057
C 7.960997 0.757355 1.717941
C 6.716497 1.468695 1.805742
C 7.962331 7.885707 1.774998
C 6.734346 2.888584 1.987283
C 7.991337 5.062069 1.999443
C 7.962230 3.624303 1.906779
C 6.733262 7.196763 2.009140
C 4.143996 5.820652 2.352471
C 5.481870 3.479122 2.322473
C 6.837393 5.808762 2.319858
N 3.017438 7.908658 1.792668
N 4.232977 1.442676 1.849786
N 9.205001 5.751966 1.762973
V 5.505156 5.021028 3.449682
