32
Title                                   
C 0.552547 0.780019 1.727943
C 9.187727 1.495095 1.739293
C 0.572217 7.899768 1.728904
C 9.170095 2.928113 1.773767
C 0.564873 5.050702 1.754793
C 9.205515 5.762195 1.767869
C 0.552069 3.618196 1.775894
C 9.210503 7.187230 1.749484
C 3.018748 0.749466 1.814489
C 1.798225 1.476073 1.769787
C 1.795336 2.899995 1.816271
C 3.014289 5.032641 2.053057
C 1.799680 5.759565 1.826475
C 3.035137 3.599722 1.968327
C 1.800512 7.185147 1.791907
C 5.493930 0.731238 1.898381
C 5.484334 7.878368 2.020354
C 4.260975 2.838493 1.986557
C 4.224626 7.182649 2.121367
C 7.956435 0.768360 1.757329
C 6.707435 1.458558 1.821356
C 7.974328 7.905567 1.788162
C 6.689023 2.875644 1.900167
C 7.963022 5.086758 1.891720
C 7.906467 3.640923 1.854790
C 6.758699 7.185061 1.965302
C 4.140594 5.824200 2.392024
N 5.449551 3.467569 2.080997
N 6.815630 5.827827 2.094642
N 3.023998 7.906869 1.846794
N 4.233292 1.426077 1.886786
Cr 5.573952 4.983102 3.348511
