32
Title                                   
C 0.555209 0.768721 1.630295
C 9.189429 1.481649 1.678041
C 0.555084 7.889746 1.633706
C 9.182607 2.910071 1.762906
C 0.555044 5.036819 1.724860
C 9.190779 5.748891 1.763288
C 0.554974 3.615886 1.739400
C 9.186976 7.175541 1.692129
C 3.013485 0.763774 1.699603
C 1.790249 1.481775 1.677592
C 3.026925 7.895826 1.720300
C 1.796901 2.910281 1.762776
C 3.009014 5.055655 2.002238
C 1.788773 5.748941 1.763186
C 3.025498 3.613651 1.958460
C 1.792437 7.175545 1.692009
C 5.489833 0.743434 1.847941
C 4.251635 1.450702 1.827228
C 4.252801 2.859526 2.035850
C 4.178972 5.833270 2.317268
C 5.489517 3.475682 2.361158
C 4.247558 7.196373 1.953910
C 7.966158 0.763631 1.700170
C 6.728161 1.450667 1.827995
C 7.952495 7.895715 1.720726
C 6.726631 2.859429 2.036507
C 7.970760 5.055585 2.002591
C 6.801003 5.833215 2.317952
C 7.953997 3.613527 1.958893
C 6.731781 7.196196 1.954211
N 5.489671 7.889240 1.924128
Nb 5.489406 5.022228 3.626179
