32
Title                                   
C 0.553606 0.777184 1.708429
C 9.190029 1.488423 1.726080
C 0.569218 7.897104 1.691068
C 9.182918 2.923660 1.764433
C 0.563004 5.049293 1.738358
C 9.204115 5.761577 1.725668
C 0.557770 3.618496 1.757681
C 9.207111 7.184518 1.697084
C 3.020224 0.751449 1.817524
C 1.799811 1.473747 1.772727
C 1.794252 2.901462 1.829565
C 2.998757 5.025583 2.078303
C 1.794889 5.761935 1.820100
C 3.015384 3.597184 2.045169
C 1.796852 7.184515 1.764097
C 5.488508 0.737603 1.876483
C 5.482823 7.873359 1.946522
C 4.239568 2.838549 2.146748
C 4.223736 7.179174 2.074914
C 7.953335 0.766586 1.726686
C 6.706659 1.463025 1.821906
C 7.968609 7.900522 1.733479
C 6.718694 2.880730 2.012401
C 7.969251 5.071741 1.851188
C 7.940744 3.632461 1.884137
C 6.749146 7.179570 1.875434
C 4.122511 5.827862 2.382172
C 5.477562 3.440224 2.382130
N 6.806943 5.807813 1.970906
N 3.018957 7.905861 1.827504
N 4.233296 1.427408 1.913873
Rh 5.585481 5.082572 3.350732
