32
Title                                   
C 0.554660 0.787153 1.742728
C 9.185691 1.492519 1.775527
C 0.554556 7.907306 1.722273
C 9.171546 2.921027 1.819002
C 0.555003 5.039156 1.750943
C 9.201859 5.760256 1.772689
C 0.554928 3.620255 1.788212
C 9.200875 7.185971 1.750937
C 3.016700 0.766270 1.788314
C 1.793353 1.492558 1.774690
C 3.007999 7.894117 1.794788
C 1.807778 2.921100 1.818544
C 3.013273 5.074921 1.922857
C 1.777442 5.760596 1.772339
C 3.053540 3.628995 1.923437
C 1.777968 7.186274 1.749602
C 5.489449 0.712314 1.893471
C 4.259872 1.445857 1.867441
C 5.489367 7.835154 1.942319
C 4.286134 2.863552 1.979724
C 4.214094 7.155152 1.938654
C 7.962578 0.766069 1.790119
C 6.719347 1.445453 1.868014
C 7.971089 7.894036 1.797281
C 6.693399 2.862871 1.979706
C 7.966559 5.074324 1.923460
C 7.925894 3.628473 1.924076
C 6.764839 7.155283 1.940158
N 4.151206 5.804534 2.093261
N 5.489946 3.482660 2.160310
N 6.829352 5.804542 2.094407
Rh 5.493465 5.042441 3.454216
