31
Title                                   
C -0.015748 1.804910 5.817516
C 1.213498 2.528908 5.862064
C 1.206825 3.959718 5.986542
C -0.030359 4.677434 6.064099
C 0.028551 10.318724 6.066282
C 1.249977 12.468526 5.873566
C 0.003087 14.623847 5.778664
C 1.236752 15.343862 5.765981
C 1.229197 16.779485 5.761980
C 0.010795 13.187795 5.829837
C 2.454050 1.809453 5.813560
C 3.692057 2.524937 5.845962
C 3.682445 3.957410 5.951308
C 2.461679 0.372773 5.768976
C 3.711348 6.733369 6.260841
C 3.751306 8.196264 6.315845
C 2.440735 4.674873 6.026741
C 2.491409 10.314020 6.068199
C 3.721124 12.467929 5.865333
C 2.474915 14.623142 5.778245
C 3.708239 15.343894 5.763494
C 3.700618 16.781477 5.758477
C 2.483147 13.188790 5.829482
C 3.729424 11.033809 5.976559
C 1.257362 11.042835 5.996630
C -0.008773 0.369806 5.770389
C 2.507006 8.904853 6.280106
C 0.040958 8.904685 6.266304
C 2.477021 6.084779 6.171303
N -0.037249 6.046384 6.277785
Nb 1.271020 7.489457 7.109129
