32
Title                                   
C 0.551153 0.770208 1.636323
C 9.191910 1.480717 1.670043
C 0.563872 7.893165 1.649919
C 9.190234 2.907449 1.730348
C 0.563320 5.040691 1.682161
C 9.204877 5.748001 1.739355
C 0.560765 3.612174 1.691799
C 9.200601 7.176225 1.697858
C 3.012284 0.752368 1.734167
C 1.788419 1.469618 1.677034
C 1.797406 2.897554 1.722893
C 2.995132 5.039799 1.982968
C 1.795107 5.756413 1.737989
C 3.019909 3.609830 1.927905
C 1.794365 7.183778 1.711036
C 5.489762 0.752752 1.852293
C 4.242713 1.450569 1.844085
C 5.475755 7.887027 1.947827
C 4.236146 2.858327 2.038465
C 4.124099 5.829589 2.361857
C 5.481490 3.477110 2.373905
C 4.211303 7.204014 2.020799
C 7.962238 0.763660 1.707634
C 6.728624 1.462850 1.830405
C 7.962580 7.895287 1.743789
C 6.733053 2.868923 2.037016
C 7.993769 5.043502 1.978166
C 6.839262 5.814705 2.312101
C 7.961462 3.611486 1.933732
C 6.739691 7.193942 1.978680
N 3.012927 7.900055 1.772827
Ta 5.509535 5.059404 3.588124
