25
Title                                   
C 7.760271 1.770858 1.972457
C 7.763042 4.302482 1.926768
C 7.801090 6.838534 1.946467
C 1.665935 0.703820 1.947074
C 0.628546 1.740879 1.945897
C 1.696091 7.835595 1.975157
C 1.359306 5.521803 1.974830
C 0.666997 4.276978 1.927474
C 1.326378 2.998987 1.893450
C 0.669305 6.808748 1.974575
C 4.201715 0.741643 1.928193
C 2.924107 1.401488 1.894541
C 4.227543 7.837819 1.928649
C 2.982928 7.145546 1.975758
C 6.733397 0.744078 1.972796
C 5.446438 1.434210 1.972712
C 6.763810 7.875738 1.946141
C 7.103616 5.580364 1.893662
C 7.070229 3.057826 1.971849
C 5.505528 7.178187 1.893874
C 2.783879 5.721129 2.005489
C 5.645630 2.858796 2.001357
N 2.712376 2.787118 1.808162
N 5.717897 5.792356 1.807807
Zr 4.214485 4.291030 1.188957
