32
Title                                   
C 0.001668 1.790437 5.710682
C 1.235523 2.509112 5.755228
C 1.235433 3.937550 5.888748
C 0.002469 6.048961 6.210786
C -0.006829 4.640649 5.968652
C -0.014073 10.352735 6.200594
C 1.235452 12.474339 5.913693
C 0.001429 14.626353 5.725309
C 1.235465 15.344767 5.694878
C 1.235637 16.773225 5.665787
C 0.002292 13.201048 5.825653
C 2.469224 1.790475 5.710652
C 3.707513 2.504782 5.748101
C 3.707329 3.922988 5.869755
C 2.470924 0.361417 5.666832
C 2.468420 6.048957 6.210737
C 3.707804 8.163596 6.344468
C 2.477536 4.640779 5.968553
C 2.485340 10.352843 6.200616
C 3.707571 12.497452 5.879450
C 2.469744 14.626490 5.725229
C 3.707591 15.342408 5.689927
C 3.707658 16.772552 5.662500
C 2.468637 13.201068 5.825621
C 3.707765 11.084484 6.057129
C 1.235588 11.058512 6.112212
C 0.000222 0.361336 5.666835
C 2.573705 8.960134 6.427483
C 4.841695 8.960158 6.427343
C 1.235463 6.702439 6.410755
N 3.707604 6.742976 6.290880
Au 1.235533 8.252303 7.996210
