32
Title                                   
C 0.000253 1.791703 5.851081
C 1.235372 2.513502 5.880370
C 1.235386 3.945364 5.968110
C 0.026901 6.062461 6.183089
C -0.010149 4.658748 6.004005
C -0.024795 10.312308 5.989669
C 1.235618 12.448622 5.891043
C 0.002275 14.615369 5.842765
C 1.235561 15.335962 5.838471
C 1.235500 16.770261 5.834935
C 0.004243 13.179092 5.865995
C 2.470569 1.791670 5.851060
C 3.707484 2.511755 5.858710
C 3.707492 3.933227 5.915247
C 2.471561 0.359306 5.834367
C 2.444059 6.062428 6.183023
C 3.707616 8.271100 6.123144
C 2.480957 4.658715 6.003872
C 2.496136 10.312339 5.989341
C 3.707709 12.475542 5.879310
C 2.468873 14.615370 5.842715
C 3.707594 15.332798 5.835561
C 3.707529 16.767240 5.830282
C 2.466928 13.179075 5.865978
C 3.707692 11.046895 5.938161
C 1.235647 10.998549 5.954733
C -0.000574 0.359247 5.834387
N 2.525674 8.920524 6.113401
N 4.889524 8.920555 6.114097
N 1.235499 6.682002 6.392057
N 3.707602 6.831838 6.177419
Mo 1.235594 8.383755 7.764902
