25
Title                                   
C 7.760989 1.771541 1.966937
C 7.762733 4.300458 1.927094
C 7.792800 6.829985 1.923033
C 1.674856 0.712264 1.921885
C 0.637199 1.749661 1.920850
C 1.696786 7.836157 1.970012
C 1.357575 5.523525 1.988329
C 0.667184 4.278965 1.928045
C 1.330023 3.006742 1.870681
C 0.668860 6.808046 1.970478
C 4.203790 0.741875 1.928585
C 2.931872 1.404974 1.871432
C 4.225233 7.837411 1.929800
C 2.980839 7.146926 1.987832
C 6.732771 0.743688 1.968250
C 5.448204 1.432572 1.985687
C 6.755119 7.867519 1.922810
C 7.100030 5.572843 1.872713
C 7.071808 3.055808 1.983591
C 5.497799 7.174820 1.873870
C 2.789597 5.714625 2.025004
C 5.639330 2.864810 2.020597
N 2.732517 2.807087 1.762504
N 5.697945 5.772716 1.765282
Ta 4.214680 4.290992 1.388802
