31
Title                                   
C 0.007952 1.811423 5.981166
C 1.237302 2.545612 5.986274
C 1.237497 4.001648 5.995848
C -0.014589 4.699592 6.002006
C -0.014358 10.287350 5.997732
C 1.237821 12.441342 5.984723
C 0.005324 14.614535 5.974497
C 1.237816 15.338220 5.973090
C 1.237576 16.778330 5.972491
C 0.008471 13.175725 5.979865
C 2.466797 1.811411 5.980776
C 3.709420 2.527320 5.984202
C 3.709491 3.950216 5.991797
C 2.470067 0.372647 5.973645
C 3.709564 6.741195 6.001009
C 3.709607 8.245654 6.001793
C 2.489492 4.699781 5.994558
C 2.489915 10.287501 6.004266
C 3.709874 12.460187 5.984152
C 2.470204 14.614397 5.974729
C 3.709828 15.339804 5.974157
C 3.709742 16.776815 5.973212
C 2.467159 13.175609 5.980094
C 3.709861 11.037162 5.994110
C 1.237770 10.985414 5.997211
C 0.005177 0.372627 5.974067
N 2.547153 8.915639 6.017681
N 4.872118 8.915388 5.992455
N 2.547145 6.071402 5.989227
N -0.072292 6.071234 6.018673
Zn 1.237592 7.492969 6.051692
