32
Title                                   
C 0.552489 0.784959 1.683440
C 9.182696 1.500215 1.735904
C 0.563753 7.898251 1.669304
C 9.164320 2.926742 1.811770
C 0.551251 5.041199 1.739126
C 9.198473 5.759878 1.754722
C 0.555302 3.619697 1.796208
C 9.197381 7.193495 1.702608
C 3.011789 0.752549 1.714075
C 1.795620 1.489791 1.722860
C 3.033867 7.883571 1.754433
C 1.793353 2.906234 1.816814
C 3.014793 5.042300 2.011263
C 1.794009 5.733033 1.770481
C 1.800097 7.166732 1.721194
C 5.484873 0.732920 1.899653
C 4.245389 1.439346 1.828127
C 4.249789 2.848844 1.984120
C 4.236803 7.161417 2.005681
C 7.960681 0.779152 1.739156
C 6.712611 1.455211 1.865349
C 7.963602 7.914511 1.730021
C 6.677586 2.860252 2.009700
C 7.964391 5.091851 1.948968
C 7.899062 3.646136 1.941106
C 6.751331 7.199262 1.928413
C 4.161740 5.799269 2.384987
N 5.433644 3.454079 2.300106
N 6.830201 5.869746 2.217181
N 5.500505 7.862801 1.966629
N 3.040832 3.603839 1.956218
Nb 5.611531 4.993907 3.603885
