31
Title                                   
C 0.011171 1.812671 5.938652
C 1.243166 2.547536 5.948436
C 1.247500 4.003649 5.996847
C 0.008887 4.719448 6.066916
C -0.038470 10.273142 6.063346
C 1.207222 12.435357 5.951709
C -0.005759 14.610245 5.938251
C 1.227727 15.332453 5.930891
C 1.235240 16.777111 5.926936
C -0.012625 13.163395 5.949277
C 2.476213 1.817727 5.922275
C 3.721647 2.533982 5.930494
C 3.732993 3.968872 5.959394
C 2.471135 0.373302 5.919692
C 3.731410 6.761580 6.044465
C 3.691589 8.220515 6.026864
C 2.504021 4.695700 5.953044
C 2.437625 10.300089 5.882505
C 3.693866 12.450051 5.930763
C 2.454504 14.601275 5.925776
C 3.698273 15.328138 5.927069
C 3.705431 16.772499 5.923250
C 2.446262 13.154238 5.927313
C 3.682462 11.030989 5.938846
C 0.002370 0.368677 5.929581
C 2.478634 8.913806 5.794312
N 4.900724 8.914254 6.296324
N 2.548404 6.066139 5.928038
N -0.028775 6.107702 6.252865
N 1.189222 10.996511 5.974762
V 1.424428 7.507092 6.602308
