25
Title                                   
C 7.787753 1.759211 1.908958
C 7.763851 4.287017 1.906139
C 7.780745 6.823296 1.909333
C 1.681495 0.723827 1.909582
C 0.649027 1.756275 1.909258
C 1.684308 7.862727 1.909706
C 1.337306 5.549770 1.907193
C 0.665978 4.292793 1.906502
C 1.351260 3.019088 1.906465
C 0.641908 6.820366 1.909433
C 4.217582 0.740885 1.907107
C 2.944301 1.426244 1.906953
C 4.211753 7.838858 1.907161
C 2.954946 7.167362 1.907553
C 6.745283 0.716925 1.909270
C 5.474489 1.412414 1.906874
C 6.748180 7.855812 1.909477
C 7.078398 5.560614 1.906299
C 7.092395 3.029937 1.906074
C 5.485128 7.153455 1.906624
C 2.759559 5.745393 1.906012
C 5.670178 2.834297 1.904700
N 2.738009 2.812642 1.903964
N 5.691752 5.766976 1.903679
V 4.214957 4.289827 1.899783
