31
Title                                   
C 0.547194 0.759426 1.662857
C 9.190394 1.466714 1.751748
C 0.547231 7.895129 1.662673
C 9.226346 2.889085 1.755052
C 0.564674 5.036959 1.632126
C 9.226419 5.765147 1.754196
C 0.564307 3.617578 1.632322
C 9.190451 7.187790 1.750756
C 3.004485 0.765414 1.809282
C 1.779500 1.470474 1.685513
C 3.004504 7.888105 1.809479
C 1.778520 2.897204 1.669222
C 2.989986 5.065762 1.836360
C 1.778811 5.757096 1.669134
C 2.990132 3.588291 1.836272
C 1.779411 7.183670 1.685698
C 5.473293 0.771274 2.116790
C 4.205763 1.510873 2.005226
C 5.473329 7.883037 2.116582
C 4.205839 7.143290 2.005376
C 7.955099 0.768182 1.911669
C 6.739163 1.515307 2.111122
C 7.955105 7.886199 1.911222
C 6.833070 2.925013 2.230811
C 8.052911 5.049885 2.004462
C 6.832936 5.729499 2.230307
C 8.052987 3.604276 2.004731
C 6.739126 7.139138 2.110403
N 4.135615 2.872803 2.051880
N 4.135040 5.781610 2.052004
Pd 5.489733 4.327815 2.354025
