31
Title                                   
C -0.019678 1.797402 5.901079
C 1.205529 2.532981 5.919331
C 1.192199 3.970829 5.982748
C -0.054721 4.696105 6.057489
C 0.030124 10.306101 6.038467
C 1.261956 12.452480 5.912529
C 0.014612 14.610022 5.875405
C 1.240886 15.335832 5.874250
C 1.229524 16.773481 5.877853
C 0.027799 13.167404 5.889520
C 2.448104 1.805513 5.883175
C 3.687659 2.517597 5.892168
C 3.674340 3.951874 5.927369
C 2.460277 0.365632 5.873555
C 3.680529 6.767168 6.091780
C 3.727512 8.252743 6.138404
C 2.436832 4.683274 5.931764
C 2.514870 10.300999 5.977387
C 3.726368 12.465884 5.886601
C 2.473619 14.614168 5.870275
C 3.712459 15.327724 5.869222
C 3.700925 16.768791 5.872214
C 2.482482 13.171526 5.883453
C 3.743193 11.048663 5.931701
C -0.009085 0.361487 5.883216
C 0.005586 8.925252 6.250653
C 2.476539 6.095294 5.908719
N 2.520138 8.950814 6.036617
N -0.073699 6.063823 6.280780
N 1.275865 11.017645 5.976867
Sc 1.349673 7.459640 7.006610
