32
Title                                   
C 0.545379 0.766956 1.658172
C 9.183303 1.493273 1.659612
C 0.570103 7.885547 1.690035
C 9.175476 2.918116 1.693392
C 0.557323 5.049449 1.708068
C 0.545116 3.620409 1.694950
C 9.209995 7.176865 1.737236
C 3.012306 0.750757 1.752901
C 1.787962 1.468419 1.702132
C 1.777560 2.897525 1.743046
C 2.981325 5.020802 2.036223
C 1.781443 5.753876 1.793487
C 3.012920 3.586524 1.960833
C 1.803457 7.187499 1.756830
C 5.484588 0.746601 1.834937
C 5.484444 7.865646 1.957339
C 4.223809 2.827207 2.065982
C 4.216446 7.185668 2.056450
C 7.954653 0.766069 1.694350
C 6.711293 1.472417 1.783631
C 7.975119 7.895977 1.766946
C 6.718031 2.893327 1.974163
C 8.011116 5.080653 1.977070
C 7.938454 3.648680 1.875706
C 6.760756 7.202899 1.995190
C 4.113910 5.814302 2.399560
C 5.459257 3.452775 2.368733
N 6.924895 5.853374 2.393194
N 3.027891 7.900801 1.803746
N 4.230615 1.428314 1.848984
N 9.205739 5.756093 1.759982
Ta 5.549080 5.044367 3.570621
