31
Title                                   
C 0.023358 1.812206 5.965319
C 1.255627 2.545985 5.972464
C 1.264537 4.006654 5.993945
C 0.015742 4.701804 6.043977
C -0.048970 10.285981 5.919553
C 1.212028 12.437514 5.973883
C -0.001037 14.611586 5.944451
C 1.230769 15.332549 5.944102
C 1.241129 16.777370 5.943486
C -0.010525 13.161582 5.958679
C 2.484373 1.813178 5.955324
C 3.729830 2.525220 5.966796
C 3.739860 3.957328 5.985163
C 2.477080 0.369750 5.944063
C 3.733428 6.736701 5.981753
C 3.708530 8.255697 6.001068
C 2.522113 4.702206 5.950743
C 2.448099 10.291957 6.098838
C 3.689950 12.462077 5.972127
C 2.457083 14.607385 5.950992
C 3.703145 15.328351 5.943223
C 3.712891 16.772587 5.942623
C 2.446054 13.159618 5.967757
C 3.674190 11.037625 5.992381
C 0.010731 0.367509 5.949307
C 2.525642 8.906820 6.329825
N 4.866138 8.946320 5.736603
N 2.579390 6.073232 5.826980
N -0.054016 6.084788 6.178473
N 1.201722 10.990811 5.998532
Zn 1.247605 7.495757 6.368772
