25
Title                                   
C 7.773013 1.762013 1.909100
C 7.759840 4.290017 1.906281
C 7.773108 6.817737 1.909464
C 1.687118 0.731370 1.909823
C 0.656483 1.761818 1.909455
C 1.687264 7.847970 1.909933
C 1.335259 5.562613 1.907022
C 0.669933 4.289818 1.906639
C 1.335131 3.016883 1.906744
C 0.656650 6.817549 1.909678
C 4.214538 0.744920 1.907113
C 2.941967 1.410284 1.907169
C 4.214600 7.834931 1.907239
C 2.942153 7.169337 1.907279
C 6.742305 0.731668 1.909492
C 5.487308 1.410316 1.906534
C 6.742423 7.848214 1.909600
C 7.094440 5.562862 1.906478
C 7.094515 3.017170 1.905973
C 5.487411 7.169648 1.906822
N 2.740511 2.815413 1.904016
N 2.740692 5.764048 1.904221
N 5.689236 2.815397 1.903392
N 5.689129 5.764412 1.903731
Ta 4.215510 4.289606 1.900902
