32
Title                                   
C 0.554594 0.782112 1.656855
C 9.190665 1.496787 1.666177
C 0.569496 7.892173 1.649093
C 9.176915 2.929131 1.724764
C 0.557312 5.057943 1.741448
C 0.550472 3.632551 1.755852
C 9.214284 7.180528 1.654397
C 3.021494 0.752532 1.771595
C 1.797089 1.480678 1.745234
C 1.796090 2.911987 1.849100
C 2.974014 5.036384 2.175137
C 1.785322 5.762972 1.837913
C 3.012154 3.597187 2.126594
C 1.804018 7.190154 1.738323
C 5.486409 0.727169 1.848218
C 5.486236 7.856742 1.950185
C 4.253708 2.819925 2.212793
C 4.211042 7.168721 2.115930
C 7.960958 0.765451 1.666676
C 6.711045 1.464622 1.779235
C 7.974497 7.897752 1.680006
C 6.715042 2.878207 2.008790
C 7.977201 5.094468 1.868823
C 7.943638 3.642239 1.866885
C 6.761032 7.174311 1.874124
C 4.079181 5.856495 2.529563
C 5.484834 3.405205 2.475238
N 6.873099 5.819809 2.040275
N 3.018116 7.900638 1.776525
N 4.235281 1.418766 1.887598
N 9.217097 5.763027 1.689017
Cu 5.541426 5.054523 3.351133
