25
Title                                   
C 7.796482 1.753296 1.908922
C 7.775768 4.289911 1.906090
C 7.796592 6.826290 1.909172
C 1.678393 0.708091 1.909511
C 0.633156 1.753163 1.909149
C 1.678393 7.871413 1.909640
C 1.332678 5.541773 1.906926
C 0.653886 4.289865 1.906492
C 1.332506 3.037863 1.906619
C 0.633228 6.826278 1.909396
C 4.214657 0.728848 1.907149
C 2.962878 1.407617 1.907126
C 4.214700 7.850791 1.907297
C 2.962954 7.172140 1.907316
C 6.751313 0.708217 1.909132
C 5.466528 1.407631 1.906414
C 6.751437 7.871481 1.909189
C 7.097062 5.541818 1.906172
C 7.096998 3.037918 1.905921
C 5.466651 7.172103 1.906659
C 2.719297 2.794318 1.904700
C 2.719539 5.785458 1.905127
C 5.710240 2.794311 1.903902
C 5.710375 5.785422 1.904394
Cd 4.214830 4.289995 1.901684
