32
Title                                   
C 0.553056 0.777372 1.755883
C 9.180485 1.470440 1.825486
C 0.537965 7.902437 1.723044
C 9.189116 2.906334 1.916870
C 0.553413 5.043321 1.787012
C 9.188015 5.747326 1.884730
C 0.563497 3.625632 1.814980
C 9.173355 7.171474 1.799057
C 3.013993 0.786371 1.769297
C 1.794247 1.498282 1.778269
C 3.004258 7.914908 1.711482
C 1.816822 2.940746 1.794817
C 3.037574 5.106255 1.688226
C 1.779215 5.768489 1.692682
C 3.056287 3.656729 1.834456
C 1.772463 7.195600 1.682681
C 5.477861 0.724428 1.902784
C 4.269086 1.467953 1.870897
C 4.288177 2.909059 2.031967
C 5.509790 3.498472 2.428977
C 4.207023 7.152221 1.706418
C 7.956800 0.746205 1.829047
C 6.715316 1.432973 1.955599
C 7.932650 7.866377 1.817703
C 6.730541 2.849499 2.196267
C 7.975418 5.043679 2.156670
C 6.793542 5.790257 2.400801
C 7.976300 3.594469 2.138217
C 6.699797 7.140594 2.005831
N 4.204569 5.826662 1.610719
N 5.460103 7.846827 1.869473
Pd 5.523028 5.009798 3.693161
