25
Title                                   
C 7.767881 1.771835 1.965740
C 7.748165 4.309364 1.937555
C 7.790767 6.832051 1.940227
C 1.684653 0.702982 1.950441
C 0.627781 1.759416 1.950457
C 1.697311 7.843077 1.966355
C 1.343547 5.529333 1.963267
C 0.642722 4.291826 1.939907
C 1.325645 3.033154 1.909822
C 0.662484 6.806780 1.963105
C 4.216496 0.717698 1.938692
C 2.958122 1.400869 1.909260
C 4.234394 7.823075 1.936704
C 2.987741 7.133663 1.965139
C 6.731448 0.737354 1.961645
C 5.453867 1.418735 1.961921
C 6.757176 7.865551 1.939406
C 7.088176 5.574474 1.899521
C 7.058633 3.062653 1.964613
C 5.499576 7.163019 1.898549
C 2.758072 2.833069 1.811064
C 2.789432 5.714352 1.963991
C 5.639211 2.864488 1.963103
N 5.698039 5.772764 1.815384
Ta 4.209198 4.284430 1.258232
