31
Title                                   
C 0.555101 0.760420 1.845738
C 9.190820 1.471415 1.856200
C 0.555029 7.894000 1.845862
C 9.200883 2.894773 1.900413
C 0.554851 5.040939 1.919121
C 9.200849 5.759484 1.900597
C 0.554778 3.613316 1.918983
C 9.190727 7.182964 1.856351
C 3.025593 0.768527 1.825017
C 1.788742 1.471420 1.856025
C 3.025647 7.885722 1.825460
C 1.778240 2.894791 1.900656
C 3.006425 5.051368 1.908747
C 1.778288 5.759563 1.901182
C 3.006295 3.602901 1.908124
C 1.788742 7.183037 1.856489
C 5.489792 0.761088 1.840337
C 4.257956 1.502815 1.844014
C 5.489893 7.893189 1.840721
C 4.237977 2.917495 1.909963
C 4.238001 5.737144 1.911122
C 4.258158 7.151625 1.845128
C 7.954017 0.768553 1.825308
C 6.721431 1.502812 1.844130
C 7.953938 7.885778 1.825468
C 6.741118 2.917408 1.909287
C 7.972742 5.051281 1.907042
C 6.741260 5.737042 1.909258
C 7.972643 3.602857 1.907072
C 6.721535 7.151569 1.844569
V 5.489903 4.326747 2.630915
