32
Title                                   
C 0.551785 0.789068 1.751803
C 9.190376 1.491426 1.781623
C 0.566771 7.904120 1.744611
C 9.180607 2.920745 1.825816
C 0.560642 5.043532 1.747625
C 9.204994 5.756242 1.791110
C 0.557639 3.613159 1.785357
C 9.209343 7.184093 1.778515
C 3.017487 0.755901 1.783319
C 1.794360 1.481556 1.772664
C 1.807828 2.908303 1.805792
C 3.006804 5.064258 1.921159
C 1.782522 5.762250 1.769261
C 3.056330 3.633288 1.908921
C 1.785655 7.189085 1.765942
C 5.496993 0.726683 1.886231
C 4.250714 1.435195 1.852869
C 5.480475 7.843549 1.957213
C 4.271754 2.851277 1.960044
C 4.205056 7.179031 1.962095
C 7.963999 0.764377 1.792186
C 6.720498 1.445055 1.859470
C 7.971459 7.895720 1.814960
C 6.703080 2.867100 1.975566
C 7.979736 5.071323 1.967459
C 7.923886 3.631533 1.945489
C 6.760167 7.167484 1.981138
N 4.126833 5.839372 2.179179
N 5.481952 3.475344 2.160829
N 6.844829 5.814361 2.221488
N 3.012235 7.895483 1.796092
Sc 5.466954 5.011278 3.467676
