31
Title                                   
C 0.007379 1.793207 5.953936
C 1.237638 2.521506 5.966339
C 1.237548 3.968420 5.996865
C -0.013864 4.661805 6.013980
C 0.004047 10.338861 6.025969
C 1.237751 12.469416 5.979870
C 0.008335 14.620883 5.946410
C 1.237580 15.340816 5.939306
C 1.237552 16.774536 5.935108
C 0.008671 13.187326 5.967737
C 2.467815 1.793222 5.953915
C 3.709651 2.503469 5.965561
C 3.709530 3.920663 5.995740
C 2.470472 0.361514 5.938329
C 3.709656 6.720924 6.056279
C 3.709680 8.209098 6.060924
C 2.489081 4.661631 6.014038
C 2.471158 10.338885 6.025735
C 3.709726 12.481876 5.981282
C 2.467000 14.620891 5.946202
C 3.709729 15.337851 5.938938
C 3.709663 16.768822 5.934591
C 2.466755 13.187345 5.967543
C 3.709628 11.073006 6.011131
C 0.004691 0.361524 5.938313
C 2.521588 8.950986 6.049434
C 4.897755 8.951046 6.049595
N 2.559604 6.023585 6.046876
N -0.084595 6.023726 6.046751
N 1.237627 11.060025 6.007960
Au 1.237643 7.531283 6.046546
