32
Title                                   
C 0.568174 0.784122 1.783315
C 9.189781 1.501866 1.779687
C 0.580900 7.892783 1.774608
C 9.170345 2.928212 1.749986
C 0.577682 5.041146 1.738067
C 9.212049 5.744727 1.723543
C 0.561908 3.611554 1.775659
C 9.213417 7.177150 1.756065
C 3.036674 0.736263 1.853324
C 1.817959 1.479722 1.819653
C 3.056393 7.867123 1.879575
C 1.817121 2.900944 1.849899
C 3.053338 5.027801 2.079686
C 1.819951 5.728554 1.819937
C 1.817221 7.161331 1.824917
C 5.513910 0.718060 1.904783
C 4.274660 1.430958 1.893631
C 4.320628 2.857162 1.863078
C 4.275566 7.144788 2.115661
C 7.977557 0.766074 1.821599
C 6.729831 1.453807 1.835524
C 7.981529 7.900365 1.815523
C 6.651681 2.887097 1.750260
C 7.929609 5.095856 1.714927
C 6.781062 7.134738 1.852696
C 4.171295 5.785248 2.523770
N 5.472110 3.524779 1.734668
N 6.789630 5.801923 1.756600
N 5.522891 7.838171 1.993504
N 3.068497 3.601110 1.962376
N 7.897902 3.645481 1.711608
Au 5.082494 5.242275 4.255369
