32
Title                                   
C 0.551025 0.781620 1.713628
C 9.176883 1.495159 1.765257
C 0.556996 7.889610 1.671140
C 9.176656 2.916042 1.837734
C 0.553255 5.035801 1.720476
C 9.195817 5.739204 1.715004
C 0.548940 3.611995 1.811599
C 9.193114 7.176832 1.697964
C 3.013067 0.759614 1.749888
C 1.791865 1.483607 1.767002
C 3.029073 7.889996 1.734802
C 1.784730 2.902136 1.851731
C 3.004083 5.030960 1.956831
C 1.782733 5.727411 1.732411
C 1.797149 7.166404 1.692467
C 5.490473 0.745594 1.900074
C 4.247311 1.449619 1.873138
C 4.249192 2.865796 2.058251
C 4.239299 7.167134 1.931670
C 7.961275 0.768657 1.755289
C 6.725734 1.464588 1.867697
C 7.960165 7.901354 1.751407
C 6.703273 2.875786 2.034746
C 7.970559 5.060724 1.890953
C 6.760323 7.177426 1.922031
C 4.165451 5.780598 2.238462
C 5.473888 3.515508 2.360608
N 6.837521 5.805305 2.161244
N 5.498074 7.847166 1.942614
N 3.019926 3.599389 1.990028
N 7.929651 3.632032 1.955397
Hf 5.546263 5.148123 3.661956
