32
Title                                   
C -0.004488 1.791049 5.790087
C 1.232530 2.506101 5.842581
C 1.234864 3.933063 5.983840
C 0.014088 6.065674 6.289291
C -0.001762 4.644882 6.052884
C -0.045889 10.312021 5.941990
C 1.220053 12.451482 5.852961
C -0.008923 14.618707 5.736187
C 1.224957 15.339859 5.730285
C 1.228204 16.771747 5.727667
C -0.010279 13.185643 5.786062
C 2.468280 1.791273 5.790842
C 3.705067 2.507392 5.826164
C 3.708484 3.936861 5.944124
C 2.465776 0.358521 5.738576
C 2.460567 6.059328 6.292544
C 3.710021 6.821465 6.303520
C 3.721382 8.309955 6.227905
C 2.474505 4.643032 6.049651
C 2.478514 10.342110 6.131452
C 3.691002 12.487644 5.831676
C 2.456908 14.619692 5.750938
C 3.696993 15.334062 5.727278
C 3.700206 16.769488 5.723815
C 2.451869 13.187834 5.813559
C 3.690965 11.066377 5.941292
C 1.217368 11.015296 5.975520
C -0.007633 0.358485 5.736314
N 2.580417 9.020386 6.506063
N 4.854859 8.950504 5.895008
N 1.239778 6.650094 6.548545
Pt 1.408652 8.197294 7.962677
