25
Title                                   
C 7.776074 1.779675 1.908426
C 7.760887 4.293081 1.905955
C 7.789839 6.821960 1.908770
C 1.682835 0.714642 1.909006
C 0.639889 1.757325 1.908305
C 1.704966 7.850885 1.909760
C 1.363903 5.526268 1.907244
C 0.668771 4.286436 1.906215
C 1.363011 3.021820 1.905787
C 0.653657 6.799795 1.909361
C 4.211499 0.743804 1.907034
C 2.947117 1.438062 1.906786
C 4.217832 7.835903 1.907090
C 2.978308 7.140455 1.907965
C 6.724778 0.728665 1.908955
C 5.451111 1.439231 1.907125
C 6.747051 7.864805 1.908859
C 7.066598 5.557601 1.905853
C 7.065521 3.053312 1.906643
C 5.482383 7.141661 1.906195
C 2.801373 5.703223 1.906317
C 5.628132 2.876716 1.905674
N 2.750823 2.825671 1.903840
N 5.678796 5.754062 1.903504
Co 4.215384 4.290952 1.903433
