32
Title                                   
C 0.552361 0.784109 1.657126
C 9.187336 1.494691 1.675953
C 0.570490 7.903373 1.658767
C 9.172455 2.928507 1.738293
C 0.562484 5.053390 1.691992
C 9.205053 5.763954 1.735399
C 0.555766 3.620697 1.719741
C 9.209844 7.189004 1.705261
C 3.017358 0.754347 1.770092
C 1.799042 1.480249 1.713152
C 1.801291 2.904808 1.771331
C 2.996543 5.038888 2.041834
C 1.797403 5.765513 1.767376
C 3.038233 3.603197 1.979684
C 1.798407 7.192274 1.724071
C 5.494902 0.723336 1.886084
C 5.480841 7.874812 2.029959
C 4.252892 2.824904 2.073794
C 4.209450 7.196987 2.125769
C 7.955847 0.766920 1.693335
C 6.708025 1.452740 1.794063
C 7.972725 7.902872 1.754171
C 6.705710 2.855623 1.977306
C 7.980247 5.080330 1.952681
C 7.914609 3.634416 1.903192
C 6.763340 7.193618 2.005712
C 4.104629 5.839119 2.444050
N 5.469837 3.388032 2.360217
N 6.873464 5.847836 2.287061
N 3.020180 7.913267 1.802773
N 4.231710 1.426269 1.883048
Os 5.531289 5.013109 3.390213
