31
Title                                   
C 0.003467 1.803969 5.961231
C 1.237725 2.529459 5.973911
C 1.239344 3.983776 6.000663
C -0.011343 4.671709 6.012531
C -0.008645 10.318566 6.021731
C 1.226276 12.459058 5.984403
C 0.001633 14.616693 5.953493
C 1.232734 15.334546 5.948469
C 1.233004 16.774793 5.944077
C 0.003641 13.174926 5.972516
C 2.465057 1.800678 5.960162
C 3.704961 2.517322 5.970992
C 3.702855 3.941742 5.996654
C 2.467337 0.363272 5.945728
C 3.740324 6.763239 6.039438
C 3.735550 8.212193 6.043060
C 2.482486 4.689171 6.010677
C 2.461025 10.310918 6.015602
C 3.707185 12.466337 5.983030
C 2.461696 14.610906 5.954885
C 3.704528 15.332491 5.947060
C 3.704484 16.769514 5.942825
C 2.460152 13.169906 5.973296
C 3.704754 11.055612 6.006346
C 0.000234 0.365002 5.946329
C 2.546164 8.935097 6.029260
N 4.909985 8.961779 6.049157
N 2.566592 6.066214 6.034804
N -0.068553 6.032068 6.035816
N 1.217415 11.017626 6.007741
Au 1.254429 7.509568 6.035313
