32
Title                                   
C 0.012338 1.771882 5.975267
C 1.251495 2.487609 6.007242
C 1.253500 3.913002 6.081339
C 0.031765 6.040095 6.183532
C 0.013860 4.624194 6.091911
C -0.026269 10.292120 5.779467
C 1.244647 12.447318 5.897137
C 0.014185 14.607965 5.912716
C 1.247861 15.327984 5.924464
C 1.248460 16.757061 5.939561
C 0.017214 13.180655 5.891729
C 2.486853 1.771056 5.979284
C 3.720122 2.490311 5.991016
C 3.719734 3.918059 6.042374
C 2.485424 0.341638 5.950259
C 2.469297 6.066605 6.223988
C 3.730612 6.809729 6.143366
C 3.738019 8.253368 5.902674
C 2.487773 4.636763 6.112200
C 2.512781 10.338943 5.949763
C 3.718744 12.477780 5.899898
C 2.479472 14.608642 5.926277
C 3.718244 15.322627 5.925101
C 3.719858 16.752413 5.937563
C 2.474655 13.175397 5.921676
C 3.718365 11.065787 5.893890
C 1.245993 10.991630 5.851221
C 0.011379 0.343837 5.946374
N 2.618912 8.965128 6.238614
N 4.842301 8.913383 5.317373
N 1.243044 6.695572 6.377435
Zr 0.806695 8.658768 7.236589
