32
Title                                   
C 0.550514 0.782601 1.775327
C 9.188136 1.469993 1.840925
C 0.549787 7.904527 1.750998
C 9.195638 2.902894 1.920287
C 0.554152 5.048953 1.796350
C 9.193818 5.747585 1.894554
C 0.568962 3.622724 1.820007
C 9.186155 7.169365 1.834043
C 3.015833 0.778457 1.753211
C 1.792622 1.492061 1.778576
C 1.815326 2.933015 1.792640
C 3.022910 5.097973 1.688673
C 1.778453 5.778342 1.704654
C 3.052770 3.659909 1.824266
C 1.773789 7.206608 1.698182
C 5.481269 0.730951 1.877139
C 4.261078 1.472017 1.831767
C 5.453277 7.855038 1.865213
C 4.281431 2.910780 2.000441
C 5.509221 3.503550 2.391986
C 4.194954 7.157488 1.692835
C 7.954960 0.741963 1.858289
C 6.724398 1.443609 1.952572
C 7.943502 7.863601 1.871394
C 6.736870 2.855255 2.177326
C 7.979388 5.032885 2.153665
C 6.806945 5.766561 2.391974
C 7.983350 3.589569 2.132287
C 6.700459 7.135677 2.028186
N 4.168074 5.834449 1.594774
N 2.994283 7.920573 1.703155
Pd 5.521440 5.002218 3.677803
