31
Title                                   
C -0.005122 1.802196 5.885092
C 1.231647 2.523122 5.905405
C 1.229765 3.947594 5.982533
C 0.009670 4.698548 6.058998
C 0.010166 10.288444 6.047759
C 1.232046 12.463299 5.889945
C -0.003127 14.618945 5.848347
C 1.234809 15.340607 5.842785
C 1.234551 16.776234 5.846279
C -0.004636 13.184324 5.870965
C 2.472638 1.806614 5.874414
C 3.707705 2.530757 5.896240
C 3.708953 3.972296 5.958691
C 2.471715 0.369710 5.850016
C 3.699801 6.771002 6.148167
C 3.699829 8.216180 6.145618
C 2.456216 4.673041 5.987026
C 2.456579 10.313956 5.976839
C 3.708152 12.455773 5.880719
C 2.471814 14.617207 5.842841
C 3.705924 15.339754 5.841054
C 3.705615 16.776635 5.844642
C 2.472828 13.179928 5.860101
C 3.709268 11.014287 5.945086
C 1.230080 11.039170 5.969071
C -0.003622 0.367941 5.855520
C 2.482205 8.899007 6.101513
C 4.934922 8.871262 6.258771
C 2.481666 6.088584 6.105711
C -0.009007 6.116473 6.263961
Ru 1.353445 7.495259 6.917090
