32
Title                                   
C -0.000146 1.796266 5.666692
C 1.235490 2.512335 5.755491
C 1.235591 3.920316 5.986095
C 0.013669 5.992446 6.451368
C -0.006691 4.629702 6.095061
C -0.018689 10.370379 6.172091
C 1.235523 12.483416 5.818080
C 0.000809 14.632078 5.603328
C 1.235561 15.350522 5.575124
C 1.235572 16.780847 5.559066
C 0.001648 13.203929 5.715639
C 2.471352 1.796256 5.666613
C 3.707600 2.512999 5.730519
C 3.707561 3.923874 5.919192
C 2.471646 0.369732 5.574513
C 2.457356 5.992485 6.451350
C 3.707523 8.188863 6.406384
C 2.478010 4.629772 6.095101
C 2.489431 10.370276 6.172010
C 3.707454 12.499393 5.780424
C 2.470226 14.631929 5.603266
C 3.707603 15.348088 5.566501
C 3.707530 16.780041 5.552383
C 2.469238 13.203892 5.715598
C 3.707490 11.084490 5.983778
C 1.235419 11.067678 6.072530
C -0.000621 0.369759 5.574588
C 2.541372 8.974439 6.511725
C 4.873723 8.974452 6.511955
N 1.235604 6.578481 6.807165
N 3.707618 6.741253 6.522078
Mo 1.235860 8.336937 7.835592
