31
Title                                   
C 0.554747 0.769683 1.786228
C 9.194830 1.477620 1.799011
C 0.554685 7.884738 1.786267
C 9.201921 2.901026 1.805964
C 0.554860 5.038426 1.791026
C 9.201987 5.753152 1.806090
C 0.554841 3.615991 1.790976
C 9.194825 7.176571 1.799098
C 3.028903 0.766580 1.845744
C 1.783875 1.477706 1.810436
C 3.028765 7.888202 1.845621
C 1.777230 2.901563 1.819044
C 3.005411 5.047465 1.896962
C 1.777361 5.753158 1.818855
C 3.005526 3.606914 1.897145
C 1.783779 7.177017 1.810186
C 5.488918 0.791455 1.941429
C 4.240077 1.512190 1.927458
C 5.488813 7.862474 1.941109
C 4.239699 7.142145 1.927253
C 7.949873 0.765876 1.830559
C 6.738346 1.510803 1.911426
C 7.949841 7.888072 1.830558
C 7.972734 5.047487 1.872465
C 7.972704 3.606582 1.872639
C 6.738300 7.143128 1.910884
N 4.196480 2.900215 2.005054
N 4.196227 5.754347 2.004815
N 6.781878 2.898758 1.976249
N 6.781831 5.755277 1.975221
Sc 5.502117 4.327420 2.783528
