31
Title                                   
C -0.006512 1.797936 5.948482
C 1.220723 2.528388 5.957331
C 1.216131 3.965269 5.987441
C -0.026305 4.693621 6.014124
C 0.015525 10.324445 5.999397
C 1.254277 12.458701 5.963509
C 0.007195 14.619405 5.944381
C 1.240043 15.341189 5.945643
C 1.235302 16.775613 5.945729
C 0.013118 13.181448 5.948963
C 2.462171 1.805718 5.943252
C 3.703037 2.514423 5.943837
C 3.694639 3.949499 5.959161
C 2.468222 0.367876 5.942805
C 3.693257 6.744248 6.028590
C 3.726134 8.242688 6.037344
C 2.459066 4.662903 5.973114
C 2.500784 10.293396 6.019112
C 3.716365 12.472594 5.951550
C 2.476900 14.623385 5.945157
C 3.712689 15.339516 5.943812
C 3.706934 16.777152 5.943690
C 2.481849 13.189139 5.950944
C 3.724306 11.037670 5.974796
C 1.258265 11.022095 6.000266
C -0.001532 0.363929 5.945202
C 4.921990 8.911426 6.035122
C 2.497397 6.076286 5.987439
N 2.531771 8.910153 6.078281
N -0.057486 6.076041 6.095782
Mn 1.240238 7.491996 6.346945
