32
Title                                   
C 0.547075 0.769661 1.635937
C 9.183631 1.492440 1.629520
C 0.567935 7.887379 1.674337
C 9.177851 2.920161 1.671859
C 0.556863 5.052919 1.710510
C 0.547844 3.625249 1.686182
C 9.209440 7.175103 1.717604
C 3.012675 0.752931 1.757371
C 1.790253 1.473036 1.693889
C 1.785482 2.904799 1.744549
C 2.976513 5.026645 2.088181
C 1.782281 5.757624 1.817853
C 3.017363 3.591747 1.993018
C 1.801731 7.190585 1.762159
C 5.484574 0.741511 1.824259
C 5.479723 7.864418 1.956082
C 4.227038 2.823039 2.108921
C 4.211355 7.194667 2.098944
C 7.955639 0.762281 1.659326
C 6.709575 1.467161 1.758806
C 7.970840 7.892881 1.738169
C 6.724735 2.880599 1.973007
C 8.006003 5.079494 1.962977
C 7.941342 3.644458 1.861168
C 6.757318 7.199444 1.971198
C 4.100029 5.831686 2.485292
C 5.478306 3.429900 2.425376
N 6.916261 5.850263 2.361387
N 3.020612 7.903105 1.815267
N 4.229080 1.426391 1.868872
N 9.205649 5.759082 1.751030
W 5.558747 5.040534 3.510449
