32
Title                                   
C 0.563524 0.776653 1.671506
C 9.196547 1.476378 1.742211
C 0.552259 7.895771 1.666554
C 9.199262 2.904743 1.843458
C 0.556431 5.039251 1.775964
C 9.192087 5.745435 1.845216
C 0.569511 3.617767 1.801740
C 9.188749 7.169730 1.757354
C 3.022498 0.776436 1.691225
C 1.801383 1.498147 1.706087
C 3.020059 7.912756 1.672179
C 1.815122 2.925294 1.796617
C 3.016502 5.085113 1.929042
C 1.780603 5.764026 1.749691
C 3.060164 3.643727 1.942004
C 1.784530 7.184679 1.677126
C 5.493081 0.732764 1.876420
C 4.265419 1.453065 1.831549
C 4.284000 2.868301 2.034734
C 5.522936 3.467050 2.352888
C 4.228382 7.201683 1.866836
C 7.974044 0.746308 1.759671
C 6.738201 1.430422 1.880710
C 7.951112 7.879907 1.782151
C 6.751567 2.838721 2.086572
C 7.975125 5.045231 2.104510
C 6.795080 5.811280 2.392292
C 7.972949 3.603307 2.046815
C 6.733687 7.162790 2.009664
N 4.158859 5.870251 2.154614
N 5.477310 7.862777 1.929212
Zr 5.292778 5.021428 3.696887
