32
Title                                   
C 0.555431 0.776110 1.679780
C 9.183269 1.487870 1.741214
C 0.555465 7.888525 1.639743
C 9.184653 2.907708 1.828401
C 0.554712 5.039231 1.706237
C 9.191141 5.734777 1.721446
C 0.554774 3.615594 1.793419
C 9.183703 7.170077 1.677657
C 3.016724 0.762909 1.730462
C 1.797217 1.487616 1.734485
C 3.028975 7.896236 1.724428
C 1.794296 2.906843 1.821915
C 3.010899 5.041911 1.950698
C 1.787961 5.734708 1.711384
C 1.796469 7.169803 1.669086
C 5.490502 0.754953 1.899677
C 4.250662 1.462607 1.859846
C 4.256305 2.873155 2.046368
C 4.241386 7.184062 1.958919
C 7.964120 0.763315 1.742314
C 6.730254 1.462834 1.870789
C 7.951670 7.896990 1.736647
C 6.722863 2.873165 2.055648
C 7.968757 5.042636 1.965686
C 6.739301 7.185287 1.970553
C 4.159279 5.804781 2.283273
C 5.488247 3.501223 2.387306
C 6.821117 5.806227 2.296838
N 5.490274 7.880025 1.966616
N 3.026489 3.609880 1.964298
N 7.952140 3.610079 1.976169
Mo 5.484710 5.080055 3.602201
