32
Title                                   
C 0.552945 0.775266 1.675813
C 9.191766 1.492717 1.683320
C 0.564911 7.888464 1.674978
C 9.182042 2.924325 1.726312
C 0.557437 5.055868 1.752185
C 0.553182 3.629970 1.746637
C 9.212119 7.178205 1.677090
C 3.020562 0.753011 1.788141
C 1.797669 1.475264 1.748303
C 1.792261 2.907976 1.825656
C 2.977839 5.025637 2.143791
C 1.781107 5.764640 1.857701
C 3.014568 3.596027 2.076672
C 1.804329 7.188696 1.771424
C 5.490906 0.737622 1.856361
C 5.487804 7.865199 1.945760
C 4.243962 2.832064 2.161601
C 4.214913 7.181111 2.102887
C 7.959288 0.763100 1.683644
C 6.711272 1.465151 1.794339
C 7.970046 7.892526 1.694883
C 6.726003 2.885205 1.996927
C 7.980275 5.085616 1.841467
C 7.949366 3.639188 1.856601
C 6.748479 7.182287 1.861770
C 4.099777 5.839800 2.480430
C 5.482859 3.433498 2.424644
N 6.846547 5.805145 2.006288
N 3.014325 7.901236 1.815650
N 4.240046 1.423110 1.892360
N 9.208037 5.761919 1.711411
Ir 5.557120 5.061348 3.438454
