32
Title                                   
C -0.000854 1.785783 5.594422
C 1.235557 2.497071 5.693018
C 1.235608 3.900602 5.950833
C 0.003203 5.987906 6.426580
C -0.004419 4.601143 6.087770
C -0.012486 10.407572 6.323436
C 1.235471 12.500854 5.875367
C 0.000553 14.631724 5.556900
C 1.235504 15.348542 5.503545
C 1.235409 16.774746 5.465334
C 0.000807 13.214524 5.736635
C 2.471981 1.785763 5.594526
C 3.707651 2.496094 5.680851
C 3.707695 3.904305 5.922476
C 2.471899 0.361757 5.481206
C 2.467606 5.987954 6.426582
C 3.707462 6.746858 6.540334
C 3.707664 8.228280 6.611303
C 2.475641 4.601171 6.087831
C 2.483513 10.407761 6.323596
C 3.707584 12.514025 5.842262
C 2.470407 14.631723 5.556781
C 3.707569 15.344548 5.497806
C 3.707474 16.774803 5.460282
C 2.470140 13.214444 5.736591
C 3.707620 11.113457 6.121292
C 1.235431 11.107813 6.189118
C -0.000949 0.361819 5.481144
C 2.527561 9.022178 6.650795
C 4.887809 9.021997 6.651056
N 1.235364 6.584746 6.674999
Cr 1.235856 8.185361 7.706632
