31
Title                                   
C -0.005842 1.799982 5.873600
C 1.228673 2.522071 5.898295
C 1.226320 3.947773 5.992350
C 0.007447 4.702170 6.102172
C 0.008249 10.285320 6.101481
C 1.229005 12.464094 5.881178
C -0.004770 14.619884 5.812597
C 1.233556 15.339864 5.802247
C 1.233282 16.776072 5.809600
C -0.005403 13.186231 5.853985
C 2.470797 1.808022 5.855511
C 3.708306 2.528186 5.890157
C 3.711224 3.968533 5.966553
C 2.469681 0.370080 5.817505
C 3.691784 6.768872 6.183440
C 3.691667 8.219920 6.189294
C 2.457155 4.658875 5.978313
C 2.457856 10.329151 5.978900
C 3.708847 12.458163 5.873946
C 2.469904 14.616164 5.803589
C 3.703493 15.339371 5.800086
C 3.703275 16.776745 5.807572
C 2.471086 13.178067 5.836581
C 3.712083 11.018653 5.960695
C 1.226801 11.039332 5.986171
C -0.005055 0.366387 5.826959
C 2.486196 8.916128 6.094205
C 4.928427 8.868044 6.368250
C 2.486064 6.072953 6.086812
C -0.015931 6.120267 6.362040
Os 1.402317 7.492774 6.907114
