32
Title                                   
C 0.554305 0.780064 1.738455
C 9.189574 1.495302 1.741628
C 0.574441 7.898872 1.744893
C 9.169882 2.929477 1.767737
C 0.565919 5.051128 1.768606
C 9.205097 5.763336 1.773365
C 0.552988 3.617617 1.783024
C 9.213007 7.187067 1.758366
C 3.022568 0.745758 1.823785
C 1.801060 1.472882 1.777021
C 1.797279 2.898757 1.823550
C 3.019241 5.026175 2.064264
C 1.803323 5.759517 1.843994
C 3.036088 3.595843 1.969801
C 1.802902 7.184420 1.809659
C 5.496062 0.728201 1.892268
C 5.488649 7.876926 2.013490
C 4.266960 2.838744 1.964641
C 4.230911 7.179082 2.131107
C 7.957549 0.769730 1.758582
C 6.707917 1.459857 1.813139
C 7.975708 7.905441 1.789018
C 6.685170 2.880273 1.865211
C 7.955450 5.087948 1.869753
C 7.906371 3.640859 1.826578
C 6.759287 7.183008 1.946688
C 4.134449 5.823249 2.437652
N 5.449905 3.478593 2.006994
N 6.806959 5.824563 2.042560
N 3.027563 7.900799 1.861629
N 4.236371 1.425128 1.889937
Rh 5.540809 5.002574 3.416103
