31
Title                                   
C 0.548594 0.756827 1.819354
C 9.183901 1.476167 1.775772
C 0.553561 7.884832 1.827220
C 9.202741 2.898319 1.819852
C 0.556942 5.039728 1.901086
C 9.203752 5.763337 1.846811
C 0.550230 3.612870 1.893060
C 9.188388 7.183924 1.798478
C 3.016403 0.764360 1.903910
C 1.773539 1.461822 1.886157
C 3.028599 7.877964 1.901921
C 1.770814 2.885005 1.928602
C 3.014930 5.022629 2.025188
C 1.784445 5.743603 1.942529
C 2.987699 3.580638 2.019949
C 1.790530 7.171047 1.893974
C 5.465852 0.794321 1.864324
C 4.228245 1.517424 1.954461
C 5.471832 7.906267 1.866158
C 4.257309 5.713131 2.065923
C 4.261285 7.144921 1.943880
C 7.945565 0.775125 1.728293
C 6.705228 1.509068 1.744903
C 7.946084 7.897923 1.743926
C 6.746936 2.920205 1.716938
C 7.974646 5.060478 1.808074
C 6.738078 5.763958 1.815948
C 7.975866 3.615988 1.763388
C 6.709036 7.183696 1.775345
N 4.192283 2.905078 2.084236
Nb 5.668059 4.311392 2.759637
