25
Title                                   
C 7.778238 1.751773 1.909227
C 7.762798 4.289994 1.906221
C 7.778365 6.828009 1.909523
C 1.676835 0.726139 1.909821
C 0.651293 1.751596 1.909482
C 1.676912 7.853203 1.909958
C 1.323387 5.572992 1.907065
C 0.667021 4.289823 1.906620
C 1.323242 3.006515 1.906740
C 0.651428 6.827805 1.909654
C 4.214510 0.741973 1.907133
C 2.931534 1.398300 1.907218
C 4.214609 7.837827 1.907237
C 2.931760 7.181254 1.907333
C 6.752686 0.726439 1.909495
C 5.497720 1.398442 1.906605
C 6.752830 7.853495 1.909652
C 7.106397 5.573213 1.906561
C 7.106386 3.006707 1.906075
C 5.497867 7.181544 1.906971
N 2.712190 2.786970 1.904230
N 2.712325 5.792452 1.904403
N 5.717631 2.787149 1.903502
N 5.717587 5.792682 1.903892
Zr 4.214987 4.289717 1.899483
