32
Title                                   
C 0.552886 0.781512 1.661413
C 9.185317 1.494711 1.679140
C 0.571626 7.902355 1.669236
C 9.170754 2.925891 1.724335
C 0.563062 5.049610 1.676397
C 9.203284 5.760255 1.730301
C 0.555277 3.619251 1.698545
C 9.209185 7.189244 1.714401
C 3.018765 0.755751 1.769288
C 1.798490 1.479549 1.706368
C 1.798973 2.902216 1.743179
C 3.002592 5.034950 2.008221
C 1.800687 5.758644 1.749642
C 3.043087 3.600709 1.938120
C 1.801386 7.190092 1.727803
C 5.490213 0.731719 1.896388
C 5.480119 7.872352 2.028589
C 4.252728 2.828785 2.051171
C 4.211014 7.194755 2.113248
C 7.954414 0.768535 1.709047
C 6.708808 1.460770 1.812520
C 7.971354 7.902755 1.769583
C 6.703502 2.862749 1.979900
C 7.980135 5.078809 1.940548
C 7.912470 3.637054 1.888598
C 6.760687 7.190341 2.011555
C 4.105192 5.831230 2.438198
N 5.466478 3.401713 2.378491
N 6.867491 5.837647 2.296910
N 3.026706 7.911607 1.810862
N 4.236964 1.431939 1.886663
Mo 5.530117 5.023689 3.504840
