32
Title                                   
C 0.546412 0.766311 1.688049
C 9.185845 1.492804 1.699345
C 0.568693 7.883467 1.706071
C 9.178873 2.916651 1.739016
C 0.556291 5.049237 1.737807
C 0.545093 3.620367 1.735073
C 9.207863 7.177041 1.742237
C 3.017257 0.751006 1.764440
C 1.789391 1.469215 1.729761
C 1.778720 2.896691 1.777022
C 2.989461 5.022252 2.026842
C 1.781427 5.754283 1.808651
C 3.013787 3.588498 1.967727
C 1.802954 7.185648 1.764569
C 5.485563 0.749021 1.846755
C 5.485670 7.867161 1.949995
C 4.230982 2.836872 2.061783
C 4.221496 7.177102 2.039532
C 7.953436 0.765479 1.722337
C 6.711604 1.470864 1.808096
C 7.974830 7.894868 1.768048
C 6.715245 2.898627 1.989156
C 7.998379 5.082352 1.952852
C 7.940277 3.647436 1.895150
C 6.754190 7.193866 1.964270
C 4.134162 5.810552 2.338876
C 5.457966 3.470259 2.323375
N 6.885907 5.835136 2.278921
N 3.027426 7.901855 1.796713
N 4.233220 1.427446 1.852125
N 9.201785 5.754235 1.764027
Ti 5.559560 5.054591 3.474879
