32
Title                                   
C 0.556565 0.768464 1.692147
C 9.195205 1.476839 1.725437
C 0.565694 7.889983 1.667816
C 9.191381 2.907913 1.802867
C 0.562988 5.047247 1.746843
C 9.194476 5.749919 1.767082
C 0.563364 3.614006 1.781371
C 9.195273 7.172188 1.702443
C 3.019671 0.761898 1.764604
C 1.798483 1.477264 1.756197
C 1.800141 2.902686 1.828919
C 3.024337 5.027435 1.998698
C 1.801229 5.760854 1.768986
C 3.028861 3.599413 2.020968
C 1.794838 7.184595 1.713312
C 5.481146 0.752945 1.829891
C 5.469020 7.908728 1.894816
C 4.252308 2.839409 2.142107
C 4.225148 7.201319 1.974706
C 7.957586 0.760264 1.713051
C 6.716836 1.460590 1.823250
C 7.962327 7.894535 1.725604
C 6.734528 2.856401 2.078076
C 7.959473 5.039009 1.976208
C 7.955954 3.599967 1.971167
C 6.723183 7.199787 1.918202
C 4.150741 5.849316 2.223635
C 5.489367 3.393870 2.468367
C 6.811855 5.828883 2.184045
N 3.015860 7.920612 1.752475
N 4.231455 1.442160 1.846060
Pd 5.504469 5.122692 3.454152
