32
Title                                   
C 0.004023 1.787111 5.583840
C 1.240825 2.499200 5.680099
C 1.242624 3.903917 5.934095
C 0.012196 5.979984 6.445253
C 0.001161 4.603536 6.073626
C -0.020468 10.415947 6.308894
C 1.232030 12.500894 5.837047
C -0.000390 14.632032 5.531988
C 1.234915 15.348781 5.486115
C 1.237329 16.776697 5.457567
C -0.002277 13.212043 5.698037
C 2.476340 1.787238 5.584000
C 3.712954 2.497627 5.666576
C 3.714961 3.904100 5.902399
C 2.474296 0.363139 5.475489
C 2.478396 5.976829 6.447181
C 3.715502 6.749504 6.586672
C 3.705565 8.233371 6.688137
C 2.485274 4.602618 6.073458
C 2.477532 10.408259 6.318510
C 3.702284 12.511390 5.801261
C 2.469257 14.633094 5.532344
C 3.707262 15.346102 5.479842
C 3.709472 16.775816 5.451909
C 2.466112 13.213693 5.699196
C 3.699268 11.112919 6.088824
C 1.230682 11.107898 6.168412
C 0.001828 0.363159 5.475147
C 2.510886 9.034356 6.712405
C 4.890996 9.042839 6.680170
N 1.247168 6.558272 6.722830
Ti 1.199329 8.164958 7.859977
