32
Title                                   
C 0.557006 0.776551 1.644343
C 9.190081 1.478438 1.690327
C 0.550016 7.897787 1.645920
C 9.189846 2.904584 1.758139
C 0.559007 5.037236 1.699500
C 9.203034 5.750855 1.763818
C 0.560883 3.618284 1.716891
C 9.192632 7.176845 1.708254
C 3.017952 0.769440 1.728347
C 1.793506 1.488270 1.688592
C 3.005347 7.895951 1.758287
C 1.803545 2.920881 1.748765
C 2.997843 5.072298 1.952633
C 1.780222 5.761890 1.735937
C 3.033795 3.630037 1.930556
C 1.775793 7.186841 1.700258
C 5.483131 0.734672 1.879297
C 4.252902 1.462310 1.847052
C 5.477885 7.862171 1.971114
C 4.257291 2.873532 2.030106
C 5.498303 3.473385 2.369380
C 4.208814 7.178617 1.977113
C 7.962818 0.758563 1.735530
C 6.727793 1.449136 1.862851
C 7.961259 7.886020 1.767923
C 6.740042 2.856666 2.058604
C 7.997455 5.038807 2.015152
C 6.849857 5.806881 2.333134
C 7.970202 3.601505 1.968416
C 6.745534 7.179178 2.004650
N 4.119639 5.826224 2.244116
Ru 5.470331 5.057334 3.378495
