31
Title                                   
C 0.549371 0.769350 1.770595
C 9.189133 1.485456 1.879268
C 0.558003 7.898581 1.764395
C 9.203156 2.910226 1.861716
C 0.554143 5.039448 1.704173
C 9.219117 5.771177 1.834477
C 0.548135 3.614925 1.710918
C 9.200129 7.194012 1.836902
C 3.015432 0.756885 1.773542
C 1.778077 1.466697 1.713824
C 3.020131 7.873099 1.799299
C 1.762877 2.896040 1.677768
C 2.994823 5.052201 1.734594
C 1.769512 5.749396 1.680046
C 2.996359 3.576216 1.678717
C 1.782034 7.179769 1.736459
C 5.477234 0.771668 2.033370
C 4.227814 1.505200 1.838948
C 5.481883 7.852039 2.026236
C 4.230912 7.116330 1.927758
C 7.956899 0.782150 2.000187
C 6.731787 1.508172 2.168654
C 7.969658 7.899868 1.957893
C 6.819933 2.915235 2.394017
C 8.007142 5.092040 2.027329
C 7.996130 3.615940 2.104533
C 6.764125 7.148773 2.047925
N 4.163879 2.881876 1.704665
N 6.846099 5.781339 2.092442
N 4.152062 5.732097 1.956900
Zn 5.475384 4.305840 2.381752
