31
Title                                   
C 0.023829 1.820205 5.906589
C 1.262305 2.552967 5.938803
C 1.277322 4.002786 5.982024
C 0.028044 4.687863 5.895741
C -0.049528 10.299929 6.009905
C 1.208373 12.449879 5.938460
C -0.011064 14.619281 5.912214
C 1.227945 15.342786 5.915324
C 1.239617 16.781900 5.915255
C -0.022504 13.178815 5.919060
C 2.488349 1.816466 5.933757
C 3.729806 2.529301 5.915503
C 3.742037 3.964426 5.938712
C 2.477596 0.376265 5.920639
C 3.781535 6.722346 6.091086
C 3.718027 8.217338 6.066140
C 2.532038 4.707795 6.085298
C 2.432940 10.288116 6.019601
C 3.681052 12.460615 5.921990
C 2.459633 14.619380 5.915904
C 3.700158 15.342518 5.910938
C 3.712309 16.785191 5.910517
C 2.447373 13.178385 5.922340
C 3.662523 11.021456 5.957103
C 1.200987 11.009263 5.994661
C 0.009913 0.378167 5.906792
C 2.488439 8.853731 6.147895
N 4.871964 8.927242 6.108034
N 2.608770 6.069072 6.381552
N -0.027565 6.063269 5.767955
Ru 1.184272 7.491395 6.551412
