32
Title                                   
C 0.009179 1.787507 5.600995
C 1.247561 2.502881 5.687974
C 1.253678 3.916624 5.912257
C 0.024332 5.999178 6.382393
C 0.011604 4.621501 6.022713
C -0.036737 10.397497 6.279127
C 1.222587 12.477105 5.822079
C -0.003820 14.619425 5.539920
C 1.232768 15.338070 5.504335
C 1.238609 16.770182 5.485678
C -0.009006 13.193174 5.687710
C 2.481757 1.787134 5.603260
C 3.718380 2.501404 5.670802
C 3.723290 3.917467 5.868649
C 2.476915 0.357513 5.504601
C 2.496723 6.004141 6.403757
C 3.737616 6.788163 6.517532
C 3.709676 8.259935 6.687052
C 2.497041 4.622278 6.037346
C 2.470385 10.406501 6.357029
C 3.695712 12.494104 5.788091
C 2.465497 14.620628 5.544226
C 3.704436 15.334820 5.498859
C 3.710705 16.769233 5.480543
C 2.458915 13.192758 5.697434
C 3.685516 11.090280 6.084367
C 1.222578 11.074011 6.155663
C 0.003715 0.358884 5.503171
C 2.537263 9.051805 6.877099
N 4.868886 9.052619 6.649874
N 1.259499 6.567209 6.718332
W 1.142072 8.173289 7.878435
