31
Title                                   
C 0.006029 1.806782 5.954056
C 1.240287 2.537768 5.968686
C 1.242008 3.983386 5.997893
C -0.013717 4.667820 6.004774
C -0.019670 10.302349 6.026771
C 1.226471 12.456323 5.982917
C -0.002503 14.622638 5.943553
C 1.233310 15.342711 5.936504
C 1.234502 16.776478 5.932966
C -0.003703 13.189222 5.967094
C 2.468348 1.803096 5.956005
C 3.707903 2.511713 5.966949
C 3.708340 3.939606 5.995950
C 2.468787 0.367869 5.937475
C 3.738817 6.711178 6.048028
C 3.731784 8.234066 6.056708
C 2.493776 4.690656 6.019639
C 2.469761 10.318192 6.035472
C 3.704937 12.474983 5.982782
C 2.466631 14.620784 5.944683
C 3.704789 15.341755 5.935735
C 3.706716 16.780257 5.931944
C 2.465037 13.184012 5.968978
C 3.698299 11.041252 6.015977
C 1.227587 11.024686 6.015055
C 0.002234 0.369675 5.936470
C 2.538411 8.904790 6.064834
N 4.891117 8.938729 6.041290
N 2.568465 6.060559 6.062292
N -0.068251 6.032312 6.016572
Pd 1.249994 7.522499 6.053146
