31
Title                                   
C -0.047446 1.816881 5.901048
C 1.178244 2.546729 5.916669
C 1.152608 3.985812 5.983430
C -0.096979 4.702419 6.082578
C 0.098711 10.274961 5.932469
C 1.296342 12.440298 5.917923
C 0.024142 14.611151 5.875198
C 1.250891 15.337867 5.879673
C 1.223957 16.779075 5.878808
C 0.051152 13.167926 5.881739
C 2.423986 1.819640 5.879600
C 3.653106 2.540494 5.893119
C 3.621082 3.983705 5.937100
C 2.450968 0.376314 5.873270
C 3.656760 6.754149 6.163074
C 3.763204 8.232477 6.162348
C 2.375869 4.711696 5.932290
C 2.571578 10.284599 6.080289
C 3.766258 12.446785 5.894830
C 2.495620 14.612110 5.883858
C 3.723488 15.336345 5.874645
C 3.695853 16.780621 5.873656
C 2.522471 13.170057 5.902936
C 3.797859 11.003227 5.936843
C 1.321651 11.000978 5.982728
C -0.020487 0.375377 5.882078
C 0.038774 8.838213 5.942441
C 2.437263 6.148253 5.940476
N 2.599898 8.928869 6.352823
N -0.124304 6.057614 6.356500
Ru 1.239897 7.493506 6.706760
