25
Title                                   
C 7.771494 1.765475 1.909153
C 7.751348 4.290022 1.906224
C 7.771611 6.814232 1.909378
C 1.690646 0.732850 1.909796
C 0.658073 1.765263 1.909442
C 1.690797 7.846333 1.909907
C 1.369366 5.549519 1.906727
C 0.678653 4.289796 1.906599
C 1.369169 3.029861 1.906468
C 0.658252 6.813999 1.909571
C 4.214626 0.753492 1.907061
C 2.955029 1.444125 1.907084
C 4.214683 7.826317 1.907214
C 2.955217 7.135341 1.907175
C 6.738887 0.733240 1.909484
C 5.474306 1.444438 1.906470
C 6.739018 7.846653 1.909532
C 7.060476 5.549742 1.906323
C 7.060500 3.030258 1.906044
C 5.474364 7.135586 1.906687
N 2.766766 2.841512 1.903913
N 2.766984 5.737908 1.904174
N 5.662813 2.841855 1.903432
N 5.662794 5.738141 1.903758
Fe 4.214667 4.290055 1.902482
