32
Title                                   
C 0.555171 0.779110 1.773907
C 9.182289 1.488124 1.807730
C 0.554824 7.892203 1.747231
C 9.180814 2.911460 1.854703
C 0.555325 5.045821 1.781173
C 9.191585 5.741580 1.788840
C 0.554930 3.617209 1.831551
C 9.185095 7.172482 1.767241
C 3.018421 0.759323 1.795364
C 1.797839 1.487875 1.801242
C 3.030260 7.894898 1.787440
C 1.798370 2.911132 1.845923
C 3.033425 5.041391 1.898397
C 1.788523 5.741385 1.776172
C 1.794666 7.172713 1.757854
C 5.489649 0.751252 1.877727
C 4.253971 1.464274 1.857317
C 4.269894 2.889098 1.952056
C 4.255697 7.167292 1.906601
C 7.961605 0.759705 1.801348
C 6.725318 1.464674 1.860324
C 7.950121 7.895200 1.796582
C 6.709269 2.889768 1.958555
C 7.947629 5.042319 1.918575
C 6.724788 7.167638 1.916410
C 4.211565 5.776168 2.076457
C 5.489080 3.553859 2.130961
C 6.769702 5.777725 2.099026
N 5.489991 7.879640 1.911440
N 3.027250 3.613506 1.910176
N 7.952909 3.614172 1.925908
Au 5.483787 5.048195 3.799266
