31
Title                                   
C -0.002294 1.785745 5.823962
C 1.234382 2.508685 5.868880
C 1.234393 3.928719 6.005773
C -0.006285 4.641602 6.114935
C -0.003588 10.354581 6.106627
C 1.232428 12.462671 5.866197
C 0.001913 14.615810 5.767791
C 1.232553 15.336919 5.755472
C 1.233177 16.767822 5.757054
C 0.000524 13.181685 5.820124
C 2.470097 1.785885 5.808001
C 3.705559 2.499985 5.846187
C 3.705576 3.930144 5.960545
C 2.469195 0.354596 5.761728
C 3.722469 6.767313 6.265727
C 3.722369 8.273027 6.254318
C 2.470794 4.660254 6.021443
C 2.463542 10.333962 6.003994
C 3.703557 12.480621 5.832545
C 2.463270 14.616084 5.757932
C 3.704938 15.328865 5.749048
C 3.705255 16.764423 5.751396
C 2.463526 13.181369 5.801231
C 3.702434 11.067273 5.935983
C -0.002662 0.354920 5.770421
C 2.485072 8.932630 6.104028
C -0.006756 8.985890 6.410249
C 2.505344 6.080966 6.116643
C -0.017545 6.035646 6.395638
N 1.231136 11.066333 6.002242
Zr 1.318042 7.473725 7.265086
