32
Title                                   
C 0.002964 1.784816 6.003149
C 1.239744 2.509166 6.048348
C 1.238301 3.938692 6.142574
C 0.029328 6.062403 6.293901
C -0.005842 4.658208 6.152368
C -0.019164 10.263327 5.730902
C 1.246635 12.425971 5.812405
C 0.013120 14.598284 5.855786
C 1.245239 15.322430 5.880504
C 1.242680 16.758136 5.928345
C 0.019711 13.161934 5.818330
C 2.475989 1.784222 6.006522
C 3.709697 2.508923 6.023452
C 3.706729 3.937529 6.079651
C 2.478141 0.349331 5.952403
C 2.437737 6.079932 6.314942
C 3.735056 8.231203 5.931844
C 2.477623 4.665951 6.167558
C 2.517782 10.300489 5.842715
C 3.721997 12.453739 5.816275
C 2.477892 14.597581 5.862739
C 3.716189 15.317678 5.879004
C 3.714263 16.754184 5.923501
C 2.475672 13.157110 5.834196
C 3.725686 11.034288 5.808907
C 1.248909 10.956411 5.768832
C 0.005239 0.350951 5.949526
N 2.603095 8.917745 6.108363
N 4.876308 8.834652 5.462042
N 1.225869 6.721031 6.541641
N 3.713345 6.822048 6.239794
Sc 0.961400 8.788960 7.270784
