25
Title                                   
C 7.780611 1.763139 2.003901
C 7.764780 4.297055 1.931061
C 7.801771 6.837875 1.985354
C 1.666931 0.703038 1.984497
C 0.627964 1.741610 1.983548
C 1.688353 7.855800 2.007740
C 1.345217 5.539161 1.962817
C 0.665303 4.282360 1.932542
C 1.333303 3.002243 1.916671
C 0.648848 6.816584 2.007645
C 4.207426 0.739869 1.932091
C 2.927665 1.408127 1.917347
C 4.221872 7.839603 1.933737
C 2.965487 7.159524 1.963234
C 6.741559 0.723925 2.004651
C 5.464072 1.420023 1.958385
C 6.762874 7.876721 1.985024
C 7.096791 5.577191 1.917314
C 7.084360 3.040451 1.957318
C 5.502147 7.171496 1.917756
C 2.754764 5.749989 1.923377
C 5.674838 2.829322 1.914452
N 2.702907 2.777474 1.838737
N 5.727399 5.802046 1.839366
Y 4.213296 4.291387 0.955533
