32
Title                                   
C 0.549257 0.779748 1.795118
C 9.187427 1.459548 1.836130
C 0.538515 7.903125 1.788604
C 9.211142 2.890261 1.874919
C 0.550119 5.049820 1.797573
C 9.188450 5.744113 1.880324
C 0.573618 3.619799 1.809090
C 9.174787 7.164696 1.853940
C 3.015267 0.792416 1.790725
C 1.789935 1.499719 1.792716
C 1.819788 2.934846 1.797271
C 3.013449 5.110086 1.742724
C 1.767625 5.787110 1.741745
C 3.054820 3.672888 1.829889
C 1.764083 7.211190 1.747761
C 5.478069 0.740869 1.896095
C 4.261860 1.495130 1.860438
C 5.440999 7.861216 1.892536
C 4.288640 2.945954 1.964588
C 5.554778 3.562206 2.234759
C 4.176151 7.171433 1.768437
C 7.946198 0.728914 1.862158
C 6.723363 1.441766 1.928970
C 7.922698 7.848079 1.888421
C 6.756125 2.866215 2.067179
C 7.973583 5.009402 2.055380
C 6.771489 5.703096 2.250734
C 7.994616 3.581304 2.012814
C 6.669441 7.115139 2.004037
N 4.147508 5.853348 1.710799
N 2.983918 7.937506 1.756597
Au 5.646044 4.930247 3.841027
