31
Title                                   
C 0.019157 1.819082 5.900338
C 1.257639 2.549358 5.936251
C 1.272300 3.999469 5.985664
C 0.019371 4.675871 5.896508
C -0.039071 10.307930 6.004324
C 1.215588 12.452980 5.935108
C -0.007133 14.619858 5.892712
C 1.230740 15.342793 5.895077
C 1.239200 16.781386 5.900047
C -0.015880 13.180069 5.907641
C 2.483198 1.813611 5.930757
C 3.722723 2.526200 5.914763
C 3.731191 3.960253 5.944027
C 2.476106 0.374134 5.910385
C 3.780152 6.728451 6.105138
C 3.720913 8.221532 6.077730
C 2.523299 4.703836 6.099083
C 2.443095 10.294959 6.058588
C 3.687544 12.463537 5.920692
C 2.463208 14.620949 5.897686
C 3.703213 15.343003 5.892007
C 3.712044 16.784563 5.896329
C 2.452921 13.180526 5.915293
C 3.671010 11.025960 5.971325
C 1.211007 11.011897 6.004032
C 0.008715 0.377507 5.894622
C 2.499511 8.860587 6.230324
N 4.875944 8.931581 6.074348
N 2.600039 6.075337 6.408674
N -0.039142 6.048423 5.780327
Os 1.167894 7.482508 6.521403
