32
Title                                   
C 0.001817 1.788756 5.935302
C 1.235689 2.511756 5.935420
C 1.235542 3.947558 5.932773
C 0.037115 6.080800 5.935332
C -0.010782 4.658416 5.931963
C -0.024915 10.309973 6.029055
C 1.235583 12.447870 5.956350
C 0.002789 14.616784 5.924112
C 1.235620 15.337735 5.924584
C 1.235627 16.768773 5.930210
C 0.003981 13.184468 5.936766
C 2.469542 1.788780 5.935249
C 3.707720 2.506512 5.933244
C 3.707588 3.928692 5.929102
C 2.470823 0.357980 5.932469
C 2.433753 6.080852 5.935209
C 3.707456 8.304096 6.040011
C 2.481872 4.658402 5.931897
C 2.495958 10.309990 6.028705
C 3.707615 12.481120 5.943130
C 2.468427 14.616720 5.923996
C 3.707653 15.334526 5.922168
C 3.707620 16.766835 5.928198
C 2.467153 13.184457 5.936613
C 3.707568 11.056493 5.985453
C 1.235500 11.009283 6.003448
C 0.000438 0.357940 5.932456
N 2.526228 8.940757 6.084433
N 4.888689 8.940750 6.085703
N 1.235431 6.714572 5.948508
N 3.707487 6.846189 5.929169
Pd 1.234749 8.209490 7.790272
