32
Title                                   
C 0.548951 0.776318 1.733953
C 9.172720 1.473075 1.775904
C 0.538316 7.898485 1.733214
C 9.166468 2.910304 1.852165
C 0.544717 5.036451 1.756720
C 9.176808 5.744519 1.853534
C 0.556443 3.619104 1.784187
C 9.176922 7.169154 1.794755
C 3.006213 0.770741 1.776511
C 1.791576 1.493472 1.741687
C 3.001341 7.902890 1.767614
C 1.821791 2.934955 1.736558
C 3.050478 5.098429 1.699412
C 1.780857 5.758663 1.703853
C 3.076386 3.642207 1.715469
C 1.772865 7.183981 1.720163
C 5.474755 0.703852 1.890708
C 4.263378 1.441061 1.814173
C 4.329404 2.876668 1.775102
C 4.205646 7.142466 1.820814
C 7.955234 0.740543 1.805078
C 6.707263 1.419873 1.878545
C 7.936684 7.865436 1.817504
C 6.671624 2.850864 1.921971
C 7.947941 5.051979 2.129222
C 6.806436 5.822500 2.512576
C 7.930475 3.606491 2.007202
C 6.718604 7.145969 2.075846
N 4.210305 5.825396 1.745266
N 5.508406 3.523744 1.851862
N 5.462979 7.846795 1.979650
Ag 5.621778 5.134806 4.142285
