32
Title                                   
C 0.554985 0.768796 1.648804
C 9.190098 1.478395 1.693607
C 0.554920 7.892811 1.650360
C 9.185799 2.906577 1.760811
C 0.554947 5.036605 1.711832
C 9.199270 5.754193 1.757637
C 0.554844 3.616820 1.728351
C 9.194293 7.178687 1.709429
C 3.015815 0.765002 1.737088
C 1.789326 1.478522 1.693544
C 3.012371 7.892933 1.770817
C 1.793460 2.906756 1.760552
C 2.993689 5.044298 1.985114
C 1.780210 5.754129 1.756764
C 3.011783 3.607301 1.946924
C 1.785003 7.178666 1.708762
C 5.489735 0.749169 1.875909
C 4.250500 1.461233 1.850210
C 5.489621 7.888850 1.978569
C 4.246766 2.871430 2.026022
C 4.137171 5.814518 2.277182
C 5.489678 3.479177 2.310132
C 4.233105 7.191281 2.001469
C 7.963588 0.764833 1.737403
C 6.729110 1.461161 1.850561
C 7.966983 7.892897 1.771725
C 6.732693 2.871330 2.026380
C 7.986276 5.044189 1.986640
C 6.843286 5.814620 2.278395
C 7.967652 3.607125 1.947736
C 6.746263 7.191161 2.002281
Rh 5.490522 5.047725 3.372487
