32
Title                                   
C 0.555584 0.783337 1.699167
C 9.187321 1.493227 1.719514
C 0.571085 7.902387 1.715238
C 9.177827 2.920904 1.742201
C 0.565450 5.045523 1.673673
C 9.205830 5.754602 1.760207
C 0.559925 3.615407 1.692608
C 9.208400 7.187502 1.765408
C 3.022828 0.758174 1.777472
C 1.803759 1.483239 1.719342
C 1.805661 2.906136 1.720088
C 3.012431 5.047629 1.881954
C 1.797538 5.758656 1.714039
C 3.066536 3.613741 1.859406
C 1.794866 7.189008 1.738747
C 5.483817 0.733539 1.948268
C 5.473410 7.851500 2.007374
C 4.258256 2.829076 2.013018
C 4.207676 7.179159 1.985831
C 7.954363 0.767589 1.766346
C 6.709877 1.458813 1.880508
C 7.971061 7.900711 1.819917
C 6.712541 2.861333 2.015225
C 7.988316 5.068140 1.950449
C 7.915462 3.631877 1.902702
C 6.757726 7.181093 2.017332
N 4.108720 5.836935 2.250525
N 5.462369 3.412938 2.408343
N 6.859595 5.819852 2.291581
N 3.030878 7.906202 1.798564
N 4.242294 1.438519 1.901882
Hf 5.462363 5.074443 3.576571
