31
Title                                   
C 0.000658 1.813809 5.904395
C 1.229100 2.547340 5.917835
C 1.223586 4.001093 5.986962
C -0.014421 4.721426 6.099705
C -0.015673 10.265731 6.098195
C 1.228318 12.439586 5.918336
C -0.000508 14.616050 5.886995
C 1.235647 15.336510 5.879002
C 1.235955 16.779418 5.877642
C 0.000009 13.173245 5.906555
C 2.467781 1.822790 5.880782
C 3.711650 2.532838 5.895644
C 3.715339 3.974428 5.936633
C 2.469190 0.376705 5.871105
C 3.685126 6.776009 6.069456
C 3.684633 8.211191 6.069110
C 2.478857 4.670415 5.921633
C 2.477902 10.316831 5.918581
C 3.710855 12.454126 5.896767
C 2.468846 14.610126 5.873155
C 3.705065 15.336043 5.875207
C 3.705293 16.780463 5.873716
C 2.467227 13.164111 5.882378
C 3.714179 11.012608 5.934629
C 1.222544 10.985772 5.985209
C 0.000002 0.370902 5.884615
N 2.505917 8.934962 5.914473
N 4.874480 8.873886 6.407179
N 2.506337 6.051569 5.918601
N -0.068546 6.113742 6.405785
Ta 1.461149 7.494425 6.810918
