31
Title                                   
C -0.021020 1.805187 5.873982
C 1.203753 2.533038 5.897950
C 1.189033 3.972543 5.981327
C -0.046748 4.692701 6.061996
C 0.043047 10.298793 6.043184
C 1.264826 12.455627 5.903019
C 0.010578 14.616325 5.845782
C 1.242051 15.339724 5.839642
C 1.229321 16.778000 5.839131
C 0.023204 13.177434 5.874110
C 2.447437 1.813232 5.860821
C 3.686966 2.528122 5.881303
C 3.675326 3.963841 5.943537
C 2.460264 0.373642 5.839350
C 3.670997 6.771556 6.138100
C 3.733919 8.222174 6.165366
C 2.427727 4.681527 5.968458
C 2.515157 10.302486 6.021562
C 3.730894 12.459366 5.888797
C 2.481077 14.619389 5.843040
C 3.713792 15.339379 5.836198
C 3.701096 16.778756 5.835208
C 2.492763 13.181318 5.870404
C 3.744483 11.023624 5.957255
C 1.276219 11.017938 5.988420
C -0.009780 0.367346 5.845750
C 0.020951 8.888079 6.206035
C 2.458286 6.093924 6.000843
N 2.529263 8.917934 6.156042
N -0.066427 6.075124 6.303460
Ta 1.313959 7.470019 6.991127
