32
Title                                   
C 0.551119 0.787636 1.704467
C 9.175747 1.500815 1.745950
C 0.557869 7.894924 1.680315
C 9.169363 2.920999 1.805485
C 0.553824 5.043045 1.709402
C 9.192617 5.743736 1.720967
C 0.548761 3.617524 1.789940
C 9.192210 7.180830 1.711127
C 3.013634 0.760916 1.752914
C 1.794579 1.489372 1.749160
C 3.032681 7.892147 1.771756
C 1.792871 2.907105 1.826048
C 3.015828 5.045656 1.989908
C 1.789021 5.732743 1.749807
C 1.798443 7.171980 1.719064
C 5.492385 0.738167 1.929162
C 4.251317 1.448002 1.874070
C 4.267800 2.859442 1.999763
C 4.238476 7.173108 2.011145
C 7.961277 0.768512 1.754515
C 6.722774 1.463545 1.863911
C 7.957960 7.904181 1.768460
C 6.687223 2.867978 1.965035
C 7.954752 5.076328 1.887481
C 6.755597 7.177771 1.962381
C 4.153604 5.804045 2.364349
N 5.474521 3.486048 2.258055
N 6.829712 5.819409 2.189360
N 5.502390 7.860309 1.989279
N 3.048764 3.606201 1.949800
N 7.901917 3.640160 1.885457
Nb 5.554728 5.028555 3.634967
