32
Title                                   
C 0.549509 0.759822 1.653919
C 9.189825 1.482467 1.658657
C 0.565181 7.880924 1.686590
C 9.188642 2.907313 1.691303
C 0.559973 5.047195 1.706357
C 0.553500 3.621025 1.683995
C 9.199742 7.166425 1.728900
C 3.014618 0.760054 1.751521
C 1.793987 1.471279 1.693323
C 1.790186 2.902040 1.723605
C 2.994888 5.031624 2.023571
C 1.787844 5.757973 1.790766
C 3.023426 3.599280 1.934566
C 1.802999 7.187693 1.758050
C 5.482925 0.763142 1.837322
C 5.472065 7.894595 1.977043
C 4.238745 2.845312 2.039423
C 4.215587 7.201638 2.071303
C 7.959191 0.760371 1.705007
C 6.718537 1.472106 1.793192
C 7.962995 7.886895 1.771657
C 6.735949 2.889909 1.981710
C 8.004653 5.062932 1.995119
C 7.962630 3.626577 1.888724
C 6.732869 7.202354 2.014592
C 4.122750 5.828539 2.413503
C 5.479887 3.462945 2.361353
C 6.857372 5.818706 2.370400
N 3.026274 7.908624 1.810734
N 4.236038 1.450597 1.836522
N 9.201932 5.746097 1.756461
Nb 5.509042 5.014738 3.604314
