25
Title                                   
C 7.772056 1.764946 1.909306
C 7.750566 4.289919 1.906306
C 7.772168 6.814558 1.909474
C 1.690112 0.732146 1.909882
C 0.657417 1.764685 1.909525
C 1.690237 7.846859 1.909969
C 1.374450 5.545651 1.906802
C 0.679316 4.289696 1.906656
C 1.374222 3.033489 1.906513
C 0.657611 6.814329 1.909650
C 4.214577 0.754125 1.907144
C 2.958745 1.449137 1.907175
C 4.214608 7.825524 1.907294
C 2.958862 7.130272 1.907224
C 6.739297 0.732546 1.909596
C 5.470495 1.449438 1.906517
C 6.739445 7.847188 1.909661
C 7.055371 5.545908 1.906421
C 7.055425 3.033921 1.906152
C 5.470607 7.130460 1.906763
N 2.765621 2.840453 1.903640
N 2.765959 5.739070 1.903916
N 5.663984 2.840801 1.903091
N 5.663868 5.739276 1.903422
Ni 4.215522 4.291616 1.902002
