32
Title                                   
C 0.555590 0.765499 1.729247
C 9.191653 1.475968 1.753101
C 0.555548 7.890098 1.732813
C 9.188385 2.904474 1.782644
C 0.555287 5.037901 1.751601
C 9.195202 5.752253 1.782671
C 0.555262 3.616441 1.762769
C 9.192668 7.177190 1.765325
C 3.018981 0.764411 1.777262
C 1.788946 1.475965 1.751338
C 3.017861 7.889711 1.796397
C 1.791686 2.904485 1.780338
C 3.017122 5.041127 1.904592
C 1.784888 5.752334 1.779266
C 3.016334 3.609662 1.873964
C 1.787903 7.177339 1.762311
C 5.490543 0.756197 1.860457
C 4.253056 1.469938 1.841029
C 5.490433 7.890603 1.904832
C 4.255658 2.894705 1.932919
C 4.197297 5.781084 2.080295
C 5.489577 3.547780 2.110008
C 4.250906 7.174704 1.921744
C 7.961828 0.764431 1.780309
C 6.727920 1.470181 1.843334
C 7.962928 7.889688 1.800687
C 6.724284 2.895020 1.936146
C 7.963121 5.041149 1.911410
C 6.783687 5.781345 2.089450
C 7.963778 3.609724 1.879068
C 6.729890 7.174549 1.927035
Cd 5.475537 5.035234 4.009136
