32
Title                                   
C 0.556889 0.782486 1.736367
C 9.190657 1.499870 1.729044
C 0.581452 7.906376 1.709056
C 9.173095 2.937011 1.742858
C 0.566865 5.056087 1.765424
C 9.213985 5.774477 1.670413
C 0.556498 3.623234 1.781885
C 9.217964 7.196665 1.652084
C 3.026658 0.739560 1.864831
C 1.805806 1.471434 1.824506
C 1.790618 2.900383 1.896238
C 3.001108 5.022650 2.169055
C 1.802797 5.759820 1.880809
C 3.005186 3.590068 2.139745
C 1.807713 7.184707 1.811463
C 5.491991 0.729960 1.883319
C 5.496856 7.859227 1.879696
C 4.243650 2.833217 2.222436
C 4.253703 7.147402 2.090808
C 7.952905 0.780278 1.707712
C 6.703652 1.481480 1.813607
C 7.976756 7.912730 1.660439
C 6.703246 2.912358 1.982391
C 7.949594 5.105910 1.659899
C 7.927246 3.654346 1.781865
C 6.764960 7.155049 1.686744
C 4.148282 5.799501 2.451463
C 5.468613 3.468802 2.419764
N 6.789571 5.803005 1.604553
N 3.035066 7.892914 1.869346
N 4.242762 1.422812 1.969406
Pd 5.487619 5.007372 3.656275
