32
Title                                   
C 0.001698 1.796153 5.611279
C 1.235419 2.513738 5.701150
C 1.235573 3.929144 5.940594
C -0.002853 6.000354 6.457247
C -0.009741 4.627771 6.067937
C -0.021474 10.386713 6.267319
C 1.235475 12.479725 5.832609
C 0.001040 14.627098 5.567665
C 1.235241 15.344442 5.527933
C 1.235246 16.777105 5.500927
C 0.002113 13.198996 5.712199
C 2.468964 1.796079 5.611323
C 3.707291 2.507394 5.681453
C 3.707473 3.919157 5.893111
C 2.470003 0.365853 5.516049
C 2.474638 6.000360 6.457173
C 3.707907 8.180022 6.483089
C 2.480886 4.627876 6.067866
C 2.492908 10.386467 6.266924
C 3.707492 12.500413 5.797620
C 2.469245 14.626939 5.567668
C 3.707060 15.341948 5.522840
C 3.707173 16.777368 5.497432
C 2.468635 13.198958 5.712095
C 3.707686 11.091723 6.055575
C 1.235763 11.068872 6.136437
C 0.000389 0.365794 5.515971
C 2.559681 8.993124 6.656664
C 4.856173 8.993153 6.657125
C 1.235976 6.607942 6.844288
N 3.707874 6.730843 6.524799
Os 1.236380 8.285797 7.798937
