32
Title                                   
C 0.553720 0.775577 1.739778
C 9.189284 1.495363 1.729864
C 0.570616 7.888567 1.765242
C 9.164978 2.929544 1.742219
C 0.559404 5.054402 1.816706
C 0.544839 3.627833 1.794002
C 9.218245 7.176075 1.777605
C 3.026792 0.742816 1.816895
C 1.801345 1.473483 1.771355
C 1.799042 2.904693 1.822190
C 3.017535 5.021948 2.118238
C 1.795674 5.759682 1.903999
C 3.040248 3.598507 1.960469
C 1.811618 7.183193 1.841549
C 5.498778 0.725160 1.881750
C 5.494751 7.862611 2.020466
C 4.289745 2.846850 1.888450
C 4.233207 7.162085 2.165495
C 7.962549 0.762851 1.755997
C 6.709415 1.459471 1.784596
C 7.976012 7.892098 1.798461
C 6.674038 2.895144 1.773345
C 7.946260 5.101238 1.815707
C 7.911483 3.648040 1.751315
C 6.758070 7.169928 1.929728
C 4.129413 5.823736 2.519587
N 5.444587 3.498026 1.844970
N 6.817264 5.800517 1.952520
N 3.025677 7.890147 1.859597
N 4.244541 1.415988 1.871494
N 9.211442 5.762760 1.790080
Pd 5.513194 5.062854 3.709832
