32
Title                                   
C 0.551175 0.775140 1.665433
C 9.189438 1.495305 1.678965
C 0.564038 7.888650 1.674010
C 9.179844 2.926718 1.730693
C 0.551424 5.055227 1.723119
C 0.548125 3.630653 1.721768
C 9.211044 7.179252 1.712402
C 3.019178 0.749026 1.765247
C 1.796062 1.472380 1.718879
C 1.791210 2.905966 1.776457
C 2.981637 5.023428 2.063662
C 1.779987 5.762172 1.807251
C 3.014026 3.592569 2.007837
C 1.804725 7.187422 1.741815
C 5.490652 0.737234 1.849828
C 5.490192 7.864752 1.965119
C 4.242601 2.829190 2.116831
C 4.215797 7.176304 2.072936
C 7.960422 0.763800 1.702422
C 6.711372 1.467807 1.801127
C 7.972283 7.896571 1.748556
C 6.724435 2.883441 2.001965
C 7.985419 5.087774 1.958366
C 7.947075 3.642748 1.905870
C 6.754921 7.192035 1.959444
C 4.116777 5.821697 2.401573
C 5.475216 3.444805 2.390503
N 6.885853 5.833595 2.251384
N 3.016160 7.898246 1.795880
N 4.238216 1.418563 1.869157
N 9.199887 5.765321 1.736763
Ru 5.524571 5.043401 3.398236
