32
Title                                   
C 0.001320 1.784474 5.609006
C 1.235725 2.498033 5.701924
C 1.235703 3.910295 5.941937
C -0.011052 5.999232 6.413682
C -0.009467 4.603977 6.074072
C -0.012307 10.403665 6.291485
C 1.235688 12.499014 5.849595
C 0.000869 14.631485 5.558938
C 1.235658 15.346405 5.514553
C 1.235652 16.773559 5.484803
C 0.001342 13.211656 5.718291
C 2.470168 1.784456 5.608956
C 3.707794 2.490149 5.688479
C 3.707756 3.898459 5.918384
C 2.470896 0.359120 5.502267
C 2.482254 5.999207 6.413998
C 3.707627 6.749691 6.536445
C 3.707536 8.225174 6.632323
C 2.480848 4.604047 6.074161
C 2.483566 10.403544 6.293524
C 3.707568 12.509803 5.814065
C 2.470381 14.631499 5.559114
C 3.707653 15.344176 5.508831
C 3.707719 16.774413 5.482545
C 2.469879 13.211829 5.718760
C 3.707533 11.107535 6.080286
C 1.235739 11.103654 6.159128
C 0.000419 0.359177 5.502205
C 2.514923 9.024721 6.650582
C 4.900007 9.024395 6.645072
C 1.235600 6.608526 6.669458
Ti 1.232337 8.171951 7.834431
