32
Title                                   
C 0.555129 0.778915 1.685911
C 9.184206 1.478503 1.767199
C 0.545478 7.900720 1.650976
C 9.183015 2.911360 1.884063
C 0.553578 5.040026 1.747175
C 9.193769 5.748390 1.826956
C 0.560104 3.623847 1.792882
C 9.182238 7.173368 1.722899
C 3.013780 0.778007 1.734021
C 1.794224 1.494288 1.733875
C 3.009264 7.910670 1.701199
C 1.812512 2.933752 1.798403
C 3.022540 5.092389 1.847290
C 1.779841 5.761858 1.701941
C 3.050021 3.639570 1.926355
C 1.779044 7.188906 1.659908
C 5.482569 0.719570 1.904898
C 4.264717 1.450534 1.867071
C 4.280528 2.871710 2.089782
C 5.495106 3.442423 2.507874
C 4.211478 7.163314 1.840455
C 7.963985 0.754110 1.774833
C 6.722286 1.429565 1.939166
C 7.947069 7.880649 1.752153
C 6.726387 2.835461 2.217792
C 7.988800 5.055516 2.147870
C 6.839487 5.835846 2.425298
C 7.968560 3.600558 2.136600
C 6.730867 7.159872 1.998278
N 4.175264 5.834370 1.953853
N 5.470706 7.850014 1.915617
Cu 5.447211 5.073109 3.420907
