31
Title                                   
C 0.006230 1.820684 5.981379
C 1.237779 2.560188 5.981334
C 1.237568 4.018001 5.999661
C -0.013893 4.724858 6.054948
C -0.012643 10.265613 5.977853
C 1.237769 12.429251 5.984455
C 0.008616 14.603682 5.961662
C 1.237455 15.331096 5.957261
C 1.237626 16.778752 5.955613
C 0.010594 13.151173 5.976504
C 2.469126 1.820652 5.961919
C 3.709743 2.539796 5.979429
C 3.709822 3.972812 5.996441
C 2.471303 0.374402 5.953932
C 3.709508 6.766902 6.027058
C 3.709495 8.244929 6.029286
C 2.488897 4.725693 5.959373
C 2.488366 10.266051 6.045429
C 3.709521 12.448713 5.984087
C 2.466526 14.603950 5.961753
C 3.709709 15.326361 5.957334
C 3.709852 16.773331 5.955640
C 2.464577 13.151592 5.975081
C 3.709587 11.028000 6.002322
C 0.004115 0.374715 5.963645
N 2.530964 8.919759 6.179057
N 4.887392 8.917593 5.870883
N 2.546553 6.095168 5.836795
N -0.071170 6.091882 6.209079
N 1.238053 10.957293 6.002490
Cu 1.237456 7.475257 6.019495
