32
Title                                   
C -0.000688 1.787296 5.729579
C 1.235067 2.502994 5.789104
C 1.235298 3.927175 5.953433
C 0.017123 6.038013 6.332735
C -0.004909 4.635252 6.042527
C -0.025030 10.338781 6.129377
C 1.235815 12.460289 5.860551
C 0.002440 14.618868 5.691959
C 1.235235 15.338948 5.671809
C 1.234982 16.770837 5.659044
C 0.004681 13.189289 5.775827
C 2.470796 1.787268 5.729514
C 3.707128 2.504906 5.773887
C 3.707341 3.925336 5.918478
C 2.471011 0.357608 5.667726
C 2.454100 6.038065 6.332724
C 3.707759 6.815701 6.411370
C 3.708103 8.294495 6.374506
C 2.475693 4.635244 6.042546
C 2.497259 10.338792 6.129505
C 3.707810 12.485094 5.815484
C 2.468248 14.618936 5.691992
C 3.707290 15.335505 5.664753
C 3.707043 16.766693 5.654115
C 2.466702 13.189326 5.775826
C 3.708104 11.071017 5.963150
C 1.236072 11.030795 6.058113
C -0.001169 0.357622 5.667703
N 2.536865 8.993921 6.381008
N 4.879477 8.993779 6.380588
N 1.235632 6.624505 6.578156
Mn 1.236056 8.274970 7.804209
