31
Title                                   
C 0.014534 1.812316 5.828556
C 1.247689 2.540803 5.873891
C 1.251460 3.987138 5.979103
C 0.003036 4.685180 5.996292
C -0.022889 10.298344 6.029486
C 1.224394 12.453318 5.889404
C -0.000089 14.621633 5.794747
C 1.235763 15.341995 5.789491
C 1.240067 16.779247 5.788122
C -0.003820 13.184861 5.835741
C 2.476299 1.810238 5.834678
C 3.717687 2.526020 5.849382
C 3.721718 3.952569 5.924587
C 2.474995 0.372630 5.795755
C 3.735296 6.731097 6.199296
C 3.719390 8.219478 6.221826
C 2.501668 4.696350 6.044091
C 2.465871 10.303754 6.068474
C 3.704331 12.465661 5.858641
C 2.468593 14.617992 5.798567
C 3.707788 15.342033 5.783263
C 3.712258 16.781713 5.782509
C 2.463446 13.180164 5.843227
C 3.699170 11.033458 5.938943
C 1.220633 11.019802 6.009389
C 0.008104 0.373380 5.792338
C 2.502258 8.909345 6.294747
N 4.917304 8.921202 6.165766
N 2.540748 6.054124 6.253129
N -0.025205 6.055653 6.114274
Y 1.163999 7.486651 7.323485
