32
Title                                   
C -0.000790 1.787161 5.551696
C 1.235541 2.496786 5.662305
C 1.235674 3.896221 5.951447
C 0.006849 5.959262 6.522770
C -0.006235 4.591434 6.106561
C -0.014877 10.420326 6.336921
C 1.235460 12.504319 5.839278
C 0.000660 14.632636 5.492774
C 1.235416 15.349104 5.435927
C 1.235357 16.776413 5.402411
C 0.001107 13.217053 5.689094
C 2.471892 1.787234 5.551781
C 3.707645 2.496052 5.647121
C 3.707742 3.899289 5.915684
C 2.471774 0.363438 5.424150
C 2.464476 5.959288 6.522741
C 3.707687 6.730808 6.652836
C 3.707647 8.226393 6.711819
C 2.477632 4.591468 6.106454
C 2.485903 10.420361 6.337003
C 3.707532 12.518716 5.807664
C 2.470153 14.632636 5.492771
C 3.707426 15.345657 5.431341
C 3.707350 16.776406 5.397880
C 2.469833 13.217025 5.689057
C 3.707502 11.124876 6.114685
C 1.235467 11.116066 6.180375
C -0.001096 0.363337 5.424152
C 2.527669 9.052083 6.715193
C 4.887613 9.052044 6.715058
N 1.235671 6.515424 6.835956
Mn 1.235652 8.228007 7.786396
