31
Title                                   
C 0.549464 0.764124 1.744226
C 9.182267 1.484756 1.756311
C 0.559922 7.890040 1.744797
C 9.200183 2.914616 1.762727
C 0.558050 5.038444 1.739131
C 9.212642 5.770423 1.790509
C 0.551913 3.615574 1.738759
C 9.202785 7.196293 1.786911
C 3.019160 0.755910 1.845830
C 1.776253 1.457808 1.787915
C 3.034364 7.869922 1.816283
C 1.766807 2.883580 1.791336
C 2.999282 5.015448 1.862207
C 1.779027 5.739677 1.764899
C 2.974785 3.569680 1.912944
C 1.796715 7.169653 1.758478
C 5.480902 0.781665 1.974006
C 4.229918 1.490250 1.975983
C 5.498281 7.872562 1.973641
C 4.223828 5.707801 1.963990
C 4.265045 7.132602 1.913833
C 7.944820 0.784387 1.814040
C 6.714116 1.521435 1.913585
C 7.960145 7.898532 1.843687
C 6.755671 2.946311 1.964737
C 8.004747 5.084332 1.910748
C 7.979952 3.638639 1.860624
C 6.749498 7.164447 1.974243
N 4.166582 2.886295 2.101975
N 6.813473 5.768512 2.099049
Hf 5.490778 4.328324 2.931899
