32
Title                                   
C 0.553910 0.782149 1.669403
C 9.188974 1.491743 1.694444
C 0.571329 7.901459 1.651655
C 9.178599 2.926659 1.753784
C 0.562812 5.050264 1.703217
C 9.207582 5.763519 1.708832
C 0.558562 3.619420 1.740034
C 9.208556 7.186715 1.675177
C 3.019585 0.750257 1.786717
C 1.799916 1.478189 1.744162
C 1.797264 2.904404 1.816887
C 2.993133 5.033097 2.083781
C 1.797902 5.760547 1.778746
C 3.018081 3.597533 2.057319
C 1.797572 7.186836 1.720502
C 5.486184 0.728965 1.881874
C 5.484505 7.867332 1.979236
C 4.245359 2.828127 2.171089
C 4.212998 7.176800 2.090072
C 7.952853 0.765911 1.705322
C 6.710798 1.461535 1.823737
C 7.970139 7.901973 1.723506
C 6.714462 2.871556 2.039004
C 7.973411 5.078681 1.912531
C 7.938404 3.634349 1.910177
C 6.761102 7.176900 1.941797
C 4.104536 5.840106 2.421722
C 5.479802 3.424617 2.435128
N 6.852436 5.826755 2.160318
N 3.022402 7.908854 1.787431
N 4.233891 1.422664 1.902417
Ni 5.536703 5.063272 3.243478
