32
Title                                   
C 0.009887 1.797258 5.739424
C 1.246953 2.516393 5.805727
C 1.252355 3.937298 5.988501
C 0.041305 6.021300 6.367766
C 0.007823 4.646246 6.067022
C -0.029545 10.318101 6.014919
C 1.230380 12.460027 5.831977
C 0.003449 14.622916 5.682634
C 1.238356 15.343008 5.672443
C 1.241039 16.776895 5.667891
C 0.001189 13.189019 5.749181
C 2.480619 1.796400 5.742538
C 3.717661 2.516568 5.784076
C 3.720756 3.931860 5.928798
C 2.478376 0.365757 5.679679
C 2.471127 6.032964 6.395410
C 3.713000 8.254883 6.376614
C 2.495974 4.649470 6.083113
C 2.487581 10.346450 6.172883
C 3.706912 12.483174 5.802379
C 2.471106 14.620926 5.693553
C 3.710070 15.339802 5.666986
C 3.713021 16.774068 5.662103
C 2.466469 13.187380 5.772163
C 3.700786 11.059486 5.950898
C 1.231176 11.026185 6.013691
C 0.005911 0.366886 5.677256
C 2.552320 8.983023 6.630769
N 4.882571 8.923085 6.070889
N 1.253546 6.621756 6.690378
N 3.734435 6.791797 6.440304
V 1.020724 8.346941 7.629336
