32
Title                                   
C 0.554645 0.783693 1.584473
C 9.187877 1.486596 1.669228
C 0.548479 7.902024 1.563831
C 9.180068 2.912613 1.792559
C 0.555773 5.036632 1.662014
C 9.204080 5.751586 1.737097
C 0.555918 3.620612 1.716892
C 9.194713 7.179720 1.642902
C 3.015448 0.769568 1.666864
C 1.791639 1.492741 1.643269
C 3.004092 7.896639 1.694938
C 1.804232 2.923881 1.743364
C 2.991521 5.082284 1.952766
C 1.775487 5.759819 1.679728
C 3.031900 3.628713 1.953594
C 1.776107 7.186290 1.624748
C 5.481528 0.722242 1.872993
C 4.248032 1.452684 1.812725
C 5.479056 7.858046 1.988408
C 4.255249 2.855050 2.072155
C 5.477081 3.385719 2.525872
C 4.196824 7.172736 1.970025
C 7.964856 0.762031 1.696757
C 6.730543 1.445872 1.869422
C 7.965845 7.891364 1.708753
C 6.730919 2.836318 2.159685
C 8.014394 5.062306 2.103281
C 6.915551 5.863911 2.470790
C 7.966383 3.607629 2.066611
C 6.766878 7.185625 2.040428
N 4.095161 5.835363 2.236312
Zn 5.473486 5.060884 3.391015
