31
Title                                   
C 0.005822 1.811711 5.958385
C 1.237722 2.547848 5.972471
C 1.237515 3.992632 6.002019
C -0.013228 4.691488 6.015626
C -0.013620 10.295624 6.024654
C 1.237657 12.439009 5.981334
C 0.004038 14.614053 5.943919
C 1.237754 15.340406 5.936471
C 1.237734 16.776213 5.933930
C 0.005723 13.175246 5.966604
C 2.469714 1.811710 5.958426
C 3.709905 2.524554 5.971085
C 3.709715 3.956552 6.000353
C 2.471398 0.373125 5.939277
C 3.709551 6.737346 6.049021
C 3.709521 8.249609 6.051926
C 2.488338 4.691264 6.015926
C 2.488499 10.295783 6.025068
C 3.709730 12.462513 5.979723
C 2.471505 14.614108 5.943914
C 3.709758 15.337296 5.936554
C 3.709721 16.779432 5.933915
C 2.469672 13.175313 5.966608
C 3.709579 11.030714 6.009697
C 1.237435 10.994170 6.011214
C 0.004132 0.373155 5.939225
N 2.548041 8.917285 6.048182
N 4.870887 8.917401 6.047197
N 2.548004 6.069591 6.042444
N -0.073072 6.069479 6.041645
Ir 1.237347 7.493516 6.054388
