32
Title                                   
C 0.556736 0.770779 1.641038
C 9.191214 1.482665 1.671618
C 0.565338 7.893843 1.650239
C 9.186888 2.910409 1.727972
C 0.562403 5.047026 1.690878
C 9.200612 5.751324 1.753846
C 0.561242 3.615669 1.695599
C 9.200821 7.179099 1.713715
C 3.020498 0.756072 1.732117
C 1.800401 1.474281 1.683609
C 1.797971 2.902265 1.731780
C 3.003652 5.033286 1.991571
C 1.799269 5.758254 1.741036
C 3.024714 3.601648 1.948124
C 1.800026 7.187006 1.699123
C 5.481203 0.750256 1.866499
C 5.473502 7.896728 2.004241
C 4.244748 2.842376 2.084592
C 4.213394 7.193659 2.059795
C 7.956999 0.763047 1.715681
C 6.714875 1.466652 1.825024
C 7.962544 7.898566 1.775167
C 6.730651 2.869186 2.035022
C 7.985777 5.050223 1.999516
C 7.955204 3.611387 1.935996
C 6.740007 7.203639 2.030653
C 4.128112 5.829065 2.359380
C 5.475778 3.448601 2.406624
C 6.840155 5.819767 2.357606
N 3.022237 7.911002 1.759834
N 4.235079 1.440800 1.845718
Mo 5.501715 5.052611 3.579887
