32
Title                                   
C 0.555311 0.775019 1.683355
C 9.182941 1.487264 1.738894
C 0.555377 7.887519 1.655477
C 9.184882 2.906854 1.819833
C 0.554709 5.037756 1.717013
C 9.191059 5.733653 1.737154
C 0.555020 3.615244 1.790232
C 9.183323 7.168946 1.696456
C 3.016198 0.763263 1.726668
C 1.797452 1.487143 1.729073
C 3.029687 7.895873 1.731450
C 1.794681 2.906558 1.810059
C 3.012658 5.040262 1.950237
C 1.788242 5.733618 1.726427
C 1.797055 7.168504 1.686134
C 5.490635 0.758078 1.889315
C 4.249937 1.464879 1.847976
C 4.255913 2.875571 2.027414
C 4.244465 7.186297 1.953883
C 7.964727 0.763266 1.742645
C 6.731402 1.465043 1.861306
C 7.951017 7.896173 1.746625
C 6.724276 2.875691 2.040509
C 7.967473 5.040777 1.969297
C 6.736243 7.186317 1.967814
C 4.168550 5.801849 2.279869
C 5.488224 3.508978 2.374388
C 6.811734 5.802739 2.298931
N 5.490530 7.881526 1.955591
N 3.029329 3.610595 1.945983
N 7.950782 3.610740 1.963861
Nb 5.479929 5.075195 3.649631
