32
Title                                   
C 0.559239 0.774838 1.694908
C 9.192990 1.465124 1.735277
C 0.545577 7.898114 1.685243
C 9.202454 2.891906 1.768477
C 0.555956 5.035545 1.702936
C 9.202267 5.745229 1.753174
C 0.568482 3.615932 1.730807
C 9.184207 7.169153 1.735443
C 3.019539 0.788126 1.781385
C 1.793936 1.496460 1.736266
C 2.996068 7.914886 1.794650
C 1.809283 2.928833 1.781966
C 2.989071 5.088330 1.950694
C 1.769627 5.768808 1.745246
C 3.036709 3.649213 1.934199
C 1.768289 7.195539 1.728128
C 5.481775 0.738507 1.929824
C 4.261011 1.479888 1.894199
C 5.462788 7.860379 1.995984
C 4.274824 2.912851 2.024942
C 5.539687 3.499373 2.252681
C 4.192667 7.189414 1.994392
C 7.962779 0.743052 1.794423
C 6.732835 1.438344 1.899713
C 7.952309 7.867752 1.816400
C 6.757600 2.857378 2.016968
C 7.992121 5.019038 1.944718
C 6.837301 5.755484 2.198682
C 7.988520 3.585580 1.914937
C 6.717719 7.149223 2.005856
N 4.101845 5.840963 2.212344
Ni 5.484287 5.047928 3.158639
