32
Title                                   
C 0.571988 0.784673 1.786626
C 9.193443 1.501192 1.778788
C 0.587734 7.891046 1.794810
C 9.171772 2.929168 1.753943
C 0.579517 5.041468 1.771640
C 9.213748 5.745317 1.754917
C 0.563342 3.613669 1.790344
C 9.216050 7.177392 1.778586
C 3.044055 0.732296 1.846755
C 1.823363 1.478477 1.809147
C 3.067157 7.860549 1.880635
C 1.826118 2.901051 1.841084
C 3.059421 5.021210 2.068400
C 1.827399 5.726113 1.839340
C 1.820949 7.161572 1.842746
C 5.517778 0.711952 1.888563
C 4.277575 1.427845 1.881253
C 4.323600 2.855568 1.848570
C 4.286148 7.139002 2.101972
C 7.978104 0.765225 1.816802
C 6.732316 1.452308 1.822834
C 7.984181 7.898697 1.817471
C 6.649644 2.886895 1.734618
C 7.929249 5.096334 1.716210
C 6.780553 7.131482 1.843516
C 4.172643 5.782661 2.610594
N 5.474120 3.525002 1.711672
N 6.787165 5.797950 1.726456
N 5.528349 7.833163 1.974122
N 3.070288 3.600148 1.940575
N 7.901145 3.647078 1.708326
Pt 4.974851 5.294689 4.232184
