32
Title                                   
C 0.559113 0.789628 1.733128
C 9.186660 1.491780 1.782785
C 0.561331 7.900343 1.720041
C 9.175433 2.919926 1.862339
C 0.551249 5.041893 1.771865
C 9.197449 5.757286 1.813803
C 0.566943 3.616925 1.824200
C 9.197075 7.189790 1.766232
C 3.018863 0.758030 1.730849
C 1.803614 1.496333 1.756202
C 3.027968 7.892206 1.745319
C 1.806376 2.916385 1.827772
C 3.021849 5.059107 1.903052
C 1.788166 5.743200 1.764365
C 1.791557 7.173932 1.736192
C 5.482682 0.720722 1.900618
C 4.259570 1.444031 1.833613
C 4.277645 2.859141 1.959235
C 4.227857 7.154851 1.892759
C 7.961710 0.770545 1.773957
C 6.713291 1.444985 1.889050
C 7.959261 7.899960 1.778122
C 6.690794 2.854330 2.044644
C 7.965762 5.075294 2.009765
C 7.919657 3.630415 1.999634
C 6.752186 7.173151 1.934932
N 4.160331 5.803402 2.137507
N 5.459771 3.467731 2.300346
N 6.828910 5.843600 2.263192
N 5.488308 7.836415 1.923322
N 3.065985 3.625498 1.906374
Os 5.466397 5.060356 3.428287
