31
Title                                   
C 0.554756 0.759292 1.727531
C 9.186319 1.468389 1.758323
C 0.554777 7.895638 1.726929
C 9.202710 2.891902 1.740574
C 0.554878 5.040370 1.695917
C 9.202873 5.763177 1.739635
C 0.554760 3.614634 1.696644
C 9.186387 7.186643 1.757302
C 3.035472 0.773724 1.857146
C 1.792570 1.468341 1.759549
C 3.035622 7.880740 1.857157
C 1.776243 2.891812 1.741516
C 2.984800 5.044328 1.861364
C 1.776427 5.763120 1.740515
C 2.984684 3.609969 1.861513
C 1.792634 7.186609 1.758585
C 5.489333 0.768545 2.025192
C 4.264546 1.523406 1.985233
C 5.489383 7.885483 2.025868
C 4.213177 2.954784 2.069120
C 4.213412 5.698938 2.069889
C 4.264695 7.130592 1.986170
C 7.943556 0.773559 1.855001
C 6.714248 1.522551 1.982394
C 7.943420 7.880823 1.854821
C 6.766182 2.953749 2.064412
C 7.994470 5.044597 1.858797
C 6.766112 5.700068 2.065251
C 7.994349 3.610099 1.858820
C 6.714244 7.131379 1.983117
Ru 5.494335 4.324782 2.855013
