32
Title                                   
C -0.000236 1.783930 5.757837
C 1.235998 2.498610 5.822191
C 1.238045 3.921023 5.995770
C 0.018455 6.037945 6.372396
C -0.000791 4.627400 6.089900
C -0.040926 10.359124 6.202680
C 1.225645 12.459350 5.851187
C -0.003406 14.620471 5.696598
C 1.230257 15.338976 5.669098
C 1.232747 16.769303 5.665508
C -0.003721 13.192477 5.789894
C 2.471862 1.785137 5.754916
C 3.709221 2.498144 5.807040
C 3.712806 3.920248 5.959700
C 2.469772 0.355495 5.679878
C 2.468027 6.030674 6.352454
C 3.716396 6.808022 6.411138
C 3.693889 8.308042 6.396807
C 2.481158 4.625423 6.079345
C 2.487229 10.337108 6.042828
C 3.699586 12.493444 5.829917
C 2.462140 14.619042 5.683023
C 3.701801 15.333641 5.666042
C 3.704472 16.766539 5.661629
C 2.457687 13.188191 5.762615
C 3.696305 11.079866 5.998898
C 1.221840 11.027196 6.027593
C -0.003134 0.354445 5.683148
N 2.537329 8.956788 6.039951
N 4.813758 9.049160 6.638538
N 1.246015 6.610232 6.620337
Ni 1.377105 8.291878 7.442443
