31
Title                                   
C 0.550650 0.764793 1.863024
C 9.186034 1.476071 1.800199
C 0.550569 7.889404 1.862678
C 9.201476 2.898804 1.821976
C 0.553951 5.039190 1.889727
C 9.201504 5.755660 1.822329
C 0.553917 3.615265 1.889926
C 9.186005 7.178366 1.800309
C 3.023126 0.775739 1.972066
C 1.779152 1.470930 1.934144
C 3.023229 7.878298 1.971426
C 1.778688 2.902479 1.947083
C 3.003983 5.051395 2.042479
C 1.778782 5.751816 1.946373
C 3.003852 3.602757 2.042714
C 1.779165 7.183386 1.933372
C 5.455960 0.775289 1.890493
C 4.234536 1.537190 2.007586
C 5.456129 7.879061 1.890612
C 4.234821 7.117093 2.007113
C 7.948683 0.765395 1.746676
C 6.708825 1.473878 1.741989
C 7.948786 7.889218 1.747158
C 6.749761 2.879792 1.681063
C 7.966907 5.057028 1.726033
C 6.750110 5.774818 1.683589
C 7.966775 3.597164 1.725053
C 6.709210 7.180790 1.743280
N 4.208944 2.938879 2.118279
N 4.209226 5.715409 2.117921
V 5.738618 4.326684 2.452629
