32
Title                                   
C 0.006273 1.791599 5.723647
C 1.242452 2.512682 5.777247
C 1.245727 3.937578 5.933781
C 0.032444 6.028806 6.283206
C -0.000574 4.643424 6.007872
C -0.029743 10.322502 6.062707
C 1.230351 12.458425 5.888538
C 0.001462 14.619349 5.717180
C 1.235788 15.340665 5.700545
C 1.237997 16.771302 5.678602
C -0.000018 13.188800 5.795236
C 2.475851 1.790739 5.727830
C 3.713264 2.510085 5.762047
C 3.714567 3.925518 5.890170
C 2.474998 0.361220 5.682649
C 2.462252 6.038589 6.311536
C 3.726549 8.275939 6.411280
C 2.490538 4.646324 6.024278
C 2.488659 10.358275 6.275616
C 3.705513 12.485981 5.866025
C 2.469276 14.619015 5.733211
C 3.708417 15.337451 5.695450
C 3.710458 16.769482 5.673425
C 2.466002 13.190436 5.831374
C 3.701155 11.068040 6.030934
C 1.230736 11.032962 6.076642
C 0.003022 0.362011 5.678878
C 2.585052 9.014520 6.762160
N 4.875007 8.937325 6.051821
N 1.244642 6.626814 6.548511
N 3.723737 6.794941 6.366029
Ni 1.085481 8.286523 7.482875
