31
Title                                   
C 0.016344 1.817205 5.961008
C 1.247495 2.559505 5.956443
C 1.252179 4.015101 5.972535
C -0.004624 4.706424 6.082391
C -0.040653 10.280035 5.858504
C 1.227723 12.427792 5.956209
C 0.000647 14.612183 5.929061
C 1.235105 15.338035 5.934025
C 1.240256 16.778834 5.934578
C -0.002490 13.168050 5.930778
C 2.477435 1.819424 5.930443
C 3.721929 2.524268 5.948851
C 3.725947 3.959232 5.960378
C 2.474490 0.375567 5.929180
C 3.705129 6.710893 5.927075
C 3.715055 8.275917 5.927246
C 2.515702 4.707297 5.858917
C 2.479506 10.279580 6.079875
C 3.696965 12.462985 5.947518
C 2.466334 14.613639 5.942203
C 3.707211 15.335431 5.932427
C 3.712182 16.782024 5.933022
C 2.458570 13.170287 5.959849
C 3.692793 11.027937 5.958034
C 1.222866 10.972000 5.971568
C 0.009100 0.374053 5.943622
N 2.587779 8.914071 6.321911
N 4.843411 8.925449 5.616164
N 2.577081 6.061201 5.614040
N -0.113375 6.071502 6.324886
Au 1.238402 7.492229 7.158458
