31
Title                                   
C 0.001415 1.788097 5.957005
C 1.228338 2.517640 5.970543
C 1.229129 3.949533 5.998661
C -0.012688 4.673614 6.019500
C -0.000307 10.347153 6.036059
C 1.246652 12.468978 5.979410
C 0.004303 14.623584 5.941825
C 1.237905 15.343185 5.934551
C 1.237167 16.773089 5.932619
C 0.006094 13.190121 5.965103
C 2.469058 1.796832 5.954697
C 3.712371 2.500472 5.966932
C 3.709152 3.929258 5.995482
C 2.470519 0.363585 5.937022
C 3.701200 6.737725 6.054537
C 3.718194 8.249409 6.063905
C 2.475830 4.639738 6.004984
C 2.488415 10.313738 6.024611
C 3.706902 12.486805 5.977184
C 2.473363 14.628450 5.940531
C 3.710227 15.341360 5.933427
C 3.708582 16.775295 5.931607
C 2.473701 13.198907 5.963254
C 3.710899 11.058334 6.012023
C 1.246015 11.037257 6.012900
C 0.001624 0.358416 5.937909
C 4.880126 8.948818 6.074708
C 2.539379 6.038615 6.021235
N 2.550312 8.940748 6.041411
N -0.074966 6.045861 6.064061
Au 1.237586 7.493532 6.053505
