32
Title                                   
C -0.000646 1.771831 5.553079
C 1.235517 2.484479 5.590287
C 1.235320 3.909656 5.725982
C 0.024017 6.027892 6.072123
C -0.003532 4.613135 5.825736
C -0.016539 10.407982 6.500692
C 1.235436 12.494469 6.051111
C 0.000850 14.620998 5.705918
C 1.235417 15.333983 5.637164
C 1.235712 16.758593 5.546660
C 0.001426 13.206560 5.901970
C 2.471812 1.771797 5.553086
C 3.707554 2.484279 5.594729
C 3.707314 3.906355 5.732179
C 2.472189 0.342591 5.529726
C 2.447181 6.027710 6.072075
C 3.707830 6.760029 6.254609
C 3.707515 8.189798 6.557743
C 2.474183 4.613138 5.825724
C 2.487923 10.407835 6.500185
C 3.707463 12.510677 6.006170
C 2.469955 14.620939 5.706117
C 3.707488 15.330459 5.631434
C 3.707825 16.757611 5.545694
C 2.469377 13.206518 5.902087
C 3.707697 11.117537 6.288933
C 1.235792 11.104169 6.379214
C -0.000673 0.342608 5.529629
C 2.570640 9.027817 6.795959
C 4.844296 9.028011 6.796456
N 1.235736 6.661402 6.168382
Pd 1.235256 8.206467 7.970448
