32
Title                                   
C 0.037006 1.790351 5.551631
C 1.278878 2.502621 5.661078
C 1.301342 3.902622 5.956327
C 0.100423 5.960625 6.567336
C 0.064730 4.599813 6.115427
C -0.108478 10.434840 6.308282
C 1.180078 12.497168 5.843802
C -0.024334 14.631841 5.520742
C 1.216657 15.349968 5.465892
C 1.241342 16.778170 5.424252
C -0.046616 13.212826 5.701007
C 2.508386 1.792023 5.551187
C 3.752853 2.499540 5.639184
C 3.776186 3.904031 5.904956
C 2.484913 0.365046 5.437703
C 2.566594 5.943564 6.568102
C 3.800788 6.758446 6.677393
C 3.689812 8.272720 6.714210
C 2.554762 4.590054 6.109395
C 2.401682 10.397513 6.325107
C 3.649582 12.518103 5.808308
C 2.443446 14.634001 5.520931
C 3.689359 15.345607 5.460743
C 3.713644 16.777693 5.419092
C 2.418705 13.216161 5.703510
C 3.621145 11.123160 6.096540
C 1.161126 11.101895 6.164553
C 0.012804 0.365072 5.437400
C 2.487821 9.031883 6.720312
N 4.803531 9.138135 6.700808
N 1.358479 6.448925 6.951194
Ni 1.120687 8.162905 7.424895
