32
Title                                   
C 0.552197 0.763034 1.679679
C 9.193257 1.482071 1.701412
C 0.562038 7.883208 1.690207
C 9.189648 2.909606 1.752172
C 0.555121 5.053587 1.743894
C 0.550529 3.625756 1.740201
C 9.202326 7.164469 1.740832
C 3.020547 0.760380 1.761896
C 1.794939 1.475579 1.722477
C 1.790678 2.904629 1.774070
C 2.999443 5.030108 2.002744
C 1.784740 5.764353 1.794215
C 3.018022 3.601623 1.956925
C 1.803490 7.186978 1.743344
C 5.487103 0.756945 1.859332
C 5.475244 7.893641 1.982474
C 4.249865 2.851220 2.049852
C 4.223216 7.186333 2.049039
C 7.963313 0.757681 1.739688
C 6.717558 1.467661 1.824920
C 7.964682 7.886872 1.791290
C 6.735942 2.888452 1.996149
C 7.989789 5.062682 2.010496
C 7.965214 3.621416 1.925220
C 6.734283 7.197240 2.013382
C 4.145650 5.818076 2.298748
C 5.477862 3.480183 2.287033
C 6.837206 5.808922 2.296209
N 3.016908 7.908255 1.786425
N 4.233925 1.439818 1.849185
N 9.204890 5.754760 1.774841
Cr 5.494134 5.025650 3.375153
