31
Title                                   
C -0.012456 1.801416 5.942125
C 1.218264 2.529267 5.953210
C 1.214040 3.961357 5.983222
C -0.026642 4.683625 6.002108
C 0.018928 10.318380 5.995185
C 1.247152 12.468578 5.956468
C 0.001669 14.625064 5.940385
C 1.236623 15.345134 5.940368
C 1.230847 16.777675 5.938223
C 0.006838 13.190213 5.945946
C 2.458666 1.805528 5.939955
C 3.696171 2.517990 5.942197
C 3.687973 3.953458 5.962480
C 2.464580 0.370673 5.936050
C 3.723444 6.732379 6.023403
C 3.748952 8.198816 6.032724
C 2.451295 4.678269 5.981107
C 2.487984 10.304637 6.011668
C 3.717339 12.472421 5.949732
C 2.475386 14.625488 5.941220
C 3.708792 15.344758 5.937328
C 3.702595 16.780677 5.935087
C 2.481988 13.192002 5.947893
C 3.721848 11.035184 5.974619
C 1.253334 11.041906 5.988926
C -0.006743 0.367621 5.936901
C 2.508810 8.882213 6.084943
C 0.016595 8.901945 6.038682
C 2.496211 6.091002 6.015163
N -0.039167 6.061083 6.061143
Fe 1.251100 7.499389 6.462738
