31
Title                                   
C 0.013843 1.818082 5.891631
C 1.251043 2.545906 5.925389
C 1.259748 4.002603 5.984387
C 0.007069 4.694719 5.931931
C -0.012280 10.304387 5.935513
C 1.231495 12.440540 5.921903
C 0.007087 14.609790 5.876880
C 1.238917 15.332766 5.880372
C 1.242389 16.778429 5.881670
C 0.004486 13.160854 5.890046
C 2.479375 1.813810 5.910198
C 3.716409 2.534009 5.902758
C 3.718044 3.968738 5.935419
C 2.477852 0.369020 5.888574
C 3.745529 6.774869 6.050458
C 3.734057 8.218117 6.087589
C 2.503085 4.717114 6.062510
C 2.464115 10.273925 6.063052
C 3.706985 12.452110 5.895090
C 2.468905 14.607166 5.885705
C 3.711030 15.329036 5.875463
C 3.714252 16.774383 5.876386
C 2.465212 13.159509 5.904147
C 3.701164 11.031962 5.916013
C 0.008505 0.373098 5.878837
C 2.497136 8.901381 6.318605
N -0.002752 8.943066 5.952027
N 2.548951 6.093262 6.310500
N -0.021115 6.067947 5.875833
N 1.223844 11.000881 5.979859
Hf 1.038036 7.466667 7.012452
