32
Title                                   
C 0.558594 0.768757 1.781653
C 9.189421 1.434219 1.774948
C 0.518259 7.895567 1.785588
C 9.235044 2.862514 1.759776
C 0.543748 5.039057 1.766962
C 9.176154 5.728470 1.768669
C 0.587202 3.613707 1.776789
C 9.151861 7.150750 1.784080
C 3.035077 0.833813 1.838319
C 1.801233 1.514809 1.803304
C 2.978976 7.949723 1.861852
C 1.836016 2.945830 1.821585
C 2.994192 5.132674 1.958706
C 1.752161 5.789673 1.821819
C 3.068995 3.690570 1.901665
C 1.749254 7.215020 1.822998
C 5.483925 0.749954 1.885691
C 4.295251 1.549999 1.877896
C 5.439043 7.847385 1.931007
C 4.342523 3.030830 1.909556
C 5.658303 3.706524 1.952733
C 4.159318 7.193038 1.989715
C 7.938032 0.703990 1.806993
C 6.730255 1.442414 1.841179
C 7.892173 7.803184 1.820012
C 6.784561 2.877912 1.845592
C 7.965557 4.971917 1.806231
C 6.691252 5.546301 1.923753
C 8.027497 3.554680 1.774360
C 6.627123 7.040967 1.891072
N 4.125571 5.849480 2.151018
Ag 5.597193 4.977460 3.877981
