32
Title                                   
C 0.553590 0.783470 1.690790
C 9.182384 1.497568 1.738779
C 0.563010 7.897264 1.685463
C 9.165687 2.924744 1.809247
C 0.550463 5.041018 1.749659
C 9.195834 5.758828 1.773223
C 0.555470 3.619508 1.794915
C 9.196792 7.192064 1.725747
C 3.013605 0.753973 1.722102
C 1.796685 1.489490 1.723912
C 3.035202 7.886414 1.756180
C 1.794819 2.906903 1.808604
C 3.018924 5.037955 1.981628
C 1.793873 5.733876 1.771663
C 1.801557 7.166607 1.728794
C 5.484725 0.733734 1.905264
C 4.247473 1.445678 1.830922
C 4.251721 2.854482 1.962642
C 4.242728 7.162285 1.984428
C 7.959909 0.776635 1.747360
C 6.712528 1.457250 1.868454
C 7.960610 7.910521 1.747497
C 6.681680 2.861707 1.998536
C 7.963481 5.085693 1.953227
C 7.901172 3.644411 1.935095
C 6.746761 7.195851 1.929970
C 4.176879 5.792102 2.333085
N 5.437853 3.470620 2.296138
N 6.819600 5.860627 2.236435
N 5.498873 7.866162 1.972529
N 3.041051 3.606057 1.939374
Ta 5.588821 4.997691 3.611842
