32
Title                                   
C 0.555070 0.787311 1.642614
C 9.185827 1.493168 1.675883
C 0.555002 7.905366 1.659579
C 9.173714 2.919132 1.734589
C 0.555040 5.038753 1.689029
C 9.204447 5.760038 1.755669
C 0.554856 3.619808 1.706048
C 9.203295 7.187847 1.722493
C 3.016332 0.765813 1.708922
C 1.793671 1.493051 1.675129
C 3.008759 7.895856 1.768384
C 1.805478 2.918957 1.733628
C 2.981746 5.065029 1.983267
C 1.775175 5.760139 1.754434
C 3.054068 3.628859 1.920419
C 1.776163 7.187936 1.721185
C 5.489703 0.714975 1.869739
C 4.256698 1.443416 1.831181
C 5.489727 7.835693 1.970202
C 4.261928 2.842192 2.012142
C 4.205575 7.186491 2.004224
C 7.963241 0.765845 1.710215
C 6.722837 1.443369 1.831955
C 7.970956 7.896023 1.770377
C 6.717470 2.842205 2.012830
C 7.998263 5.064954 1.985353
C 7.925351 3.628845 1.922071
C 6.774166 7.186525 2.005618
N 4.085360 5.840328 2.371222
N 5.489518 3.415147 2.390864
N 6.894726 5.840474 2.372651
W 5.489600 5.037647 3.401584
