32
Title                                   
C 0.550289 0.792188 1.764500
C 9.188272 1.491532 1.786364
C 0.565457 7.909603 1.756746
C 9.173535 2.925680 1.829053
C 0.560099 5.047128 1.770535
C 9.203956 5.761001 1.800657
C 0.560195 3.620079 1.799241
C 9.206738 7.183370 1.779536
C 3.016183 0.754598 1.808812
C 1.796701 1.486223 1.789620
C 1.814019 2.916980 1.818943
C 3.018062 5.070841 1.924553
C 1.785837 5.770520 1.790827
C 3.059023 3.636591 1.910877
C 1.783077 7.191771 1.783524
C 5.491598 0.712031 1.884677
C 4.255907 1.434275 1.866336
C 5.479230 7.837336 1.943076
C 4.286519 2.857965 1.965078
C 4.206322 7.157562 1.960084
C 7.960376 0.760576 1.792435
C 6.718151 1.442538 1.856981
C 7.968950 7.892058 1.808174
C 6.687755 2.864535 1.967666
C 7.963030 5.074774 1.947708
C 7.925283 3.631270 1.932544
C 6.758213 7.147085 1.951674
N 4.144509 5.827500 2.118132
N 5.486814 3.483768 2.129722
N 6.823526 5.801112 2.129222
N 3.010067 7.900531 1.820243
Rh 5.486071 5.028170 3.525960
