32
Title                                   
C 0.556838 0.791905 1.806627
C 9.185463 1.496374 1.834670
C 0.559891 7.905027 1.801277
C 9.171108 2.925463 1.875768
C 0.550276 5.045373 1.821224
C 9.198423 5.759564 1.851453
C 0.566071 3.621008 1.849992
C 9.197209 7.190781 1.826823
C 3.012364 0.756068 1.804499
C 1.802155 1.500623 1.813333
C 3.022683 7.891932 1.818074
C 1.808309 2.922201 1.842314
C 3.036468 5.073947 1.885825
C 1.786609 5.745643 1.817650
C 1.788642 7.173751 1.808273
C 5.482025 0.714046 1.878291
C 4.255405 1.436463 1.846402
C 4.292423 2.861221 1.907131
C 4.220442 7.137497 1.897150
C 7.963424 0.769867 1.830012
C 6.710302 1.440745 1.878348
C 7.963362 7.904972 1.833401
C 6.672262 2.862825 1.953032
C 7.947891 5.085127 1.963935
C 7.910434 3.636008 1.946324
C 6.755522 7.161009 1.929596
N 4.191606 5.785605 1.999176
N 5.460602 3.514054 2.043414
N 6.791220 5.824002 2.093330
N 5.489870 7.829610 1.900700
N 3.072369 3.629505 1.872145
Cr 5.512094 5.018973 3.483310
