32
Title                                   
C -0.001015 1.791784 5.712000
C 1.235355 2.508048 5.773580
C 1.235458 3.930575 5.945056
C 0.009371 6.033711 6.346172
C -0.004410 4.640881 6.037656
C -0.021234 10.349717 6.143351
C 1.235605 12.463067 5.831738
C 0.001389 14.618588 5.660995
C 1.235488 15.338237 5.645258
C 1.235380 16.772015 5.638501
C 0.002750 13.185319 5.742123
C 2.471726 1.791823 5.711993
C 3.707381 2.510489 5.757607
C 3.707497 3.931939 5.904091
C 2.472084 0.360111 5.648307
C 2.461662 6.033677 6.345953
C 3.707566 6.812451 6.445956
C 3.707701 8.273597 6.437869
C 2.475360 4.640852 6.037503
C 2.492418 10.349689 6.142658
C 3.707654 12.481399 5.782392
C 2.469584 14.618551 5.660918
C 3.707521 15.334794 5.637081
C 3.707433 16.769226 5.631195
C 2.468435 13.185281 5.742003
C 3.707635 11.059704 5.960900
C 1.235576 11.032413 6.054824
C -0.001335 0.360113 5.648322
N 2.539617 8.998184 6.471893
N 4.875524 8.998519 6.474447
N 1.235545 6.615307 6.630964
W 1.236616 8.257262 7.847996
