32
Title                                   
C 0.556134 0.791074 1.762658
C 9.179822 1.497641 1.788533
C 0.556613 7.895074 1.756279
C 9.177589 2.918227 1.843837
C 0.554850 5.042615 1.783406
C 9.192626 5.739014 1.816775
C 0.555866 3.616737 1.825231
C 9.191423 7.176153 1.794313
C 3.019038 0.762818 1.763805
C 1.802080 1.496525 1.778509
C 3.029401 7.895584 1.769096
C 1.803889 2.916171 1.823601
C 3.029308 5.058129 1.861948
C 1.787106 5.738246 1.774328
C 1.792262 7.175296 1.758718
C 5.492207 0.729720 1.909120
C 4.258131 1.451943 1.861680
C 4.284418 2.860298 1.972908
C 4.232544 7.158267 1.871725
C 7.962898 0.766072 1.775098
C 6.724390 1.455977 1.871737
C 7.954844 7.896549 1.798517
C 6.697910 2.868503 1.991931
C 7.954403 5.059452 1.953814
C 6.756088 7.162277 1.928565
N 4.193567 5.785000 2.013365
N 5.488730 3.492465 2.299844
N 6.814632 5.803190 2.214588
N 5.494564 7.830032 1.915732
N 3.074398 3.627137 1.879635
N 7.909343 3.631111 1.920807
Hf 5.412687 5.113893 3.633398
