31
Title                                   
C -0.005176 1.786450 5.939537
C 1.225236 2.517022 5.964862
C 1.224312 3.946848 6.002766
C -0.026941 4.657602 5.952192
C 0.004148 10.356211 5.955250
C 1.241665 12.467117 5.984573
C 0.005819 14.623382 5.942563
C 1.234810 15.342371 5.937948
C 1.232275 16.772045 5.930233
C 0.007442 13.187196 5.961290
C 2.463047 1.789687 5.965443
C 3.702813 2.493206 5.971895
C 3.696123 3.920384 6.015300
C 2.465818 0.358372 5.940986
C 3.726240 6.719722 6.049071
C 3.741549 8.243048 6.020206
C 2.471192 4.648287 6.108496
C 2.481345 10.338527 6.068417
C 3.709997 12.494629 5.982493
C 2.466363 14.625236 5.952824
C 3.707345 15.334675 5.940326
C 3.704344 16.769886 5.933223
C 2.470480 13.190672 5.980761
C 3.712422 11.076300 6.001085
C -0.003263 0.356157 5.927404
C 2.539849 8.948104 6.181945
C 4.918424 8.973574 5.864719
C 2.556564 6.040376 6.297412
N -0.075893 6.015642 5.821632
N 1.244711 11.065519 6.009075
Ag 1.243435 7.499902 6.097275
