25
Title                                   
C 7.785657 1.766687 1.966222
C 7.770256 4.289710 1.943233
C 7.785428 6.812793 1.964314
C 1.692437 0.719500 1.974831
C 0.644685 1.766746 1.971608
C 1.692295 7.860551 1.973111
C 1.349394 5.535858 1.936826
C 0.659009 4.290038 1.947915
C 1.349247 3.044331 1.939967
C 0.644514 6.813093 1.968858
C 4.214906 0.734312 1.952133
C 2.969594 1.424792 1.943884
C 4.214806 7.845403 1.950985
C 2.969322 7.155145 1.941043
C 6.737946 0.719244 1.965927
C 5.460571 1.424329 1.934692
C 6.737707 7.860178 1.965034
C 7.080154 5.535444 1.929458
C 7.080107 3.043855 1.931116
C 5.460330 7.155340 1.933534
C 2.779016 2.853976 1.847668
C 2.778990 5.726023 1.843484
C 5.650596 2.853523 1.836359
C 5.650573 5.725940 1.835011
Tc 4.213001 4.289201 1.276887
