31
Title                                   
C 0.013683 1.808631 5.946847
C 1.248549 2.547169 5.937102
C 1.256156 3.993173 5.938225
C -0.001718 4.685557 6.004580
C -0.042666 10.288957 5.903013
C 1.216704 12.446439 5.943194
C -0.007437 14.619202 5.929928
C 1.229373 15.341405 5.939099
C 1.236262 16.776240 5.941392
C -0.013571 13.182739 5.917372
C 2.477232 1.807809 5.925313
C 3.719042 2.513561 5.927332
C 3.724983 3.944183 5.917510
C 2.471968 0.369913 5.936072
C 3.735970 6.689013 5.920742
C 3.730176 8.225405 5.967614
C 2.515512 4.700761 5.858473
C 2.458446 10.304200 6.085161
C 3.691216 12.471299 5.930032
C 2.461666 14.618442 5.940750
C 3.701217 15.339553 5.937271
C 3.708378 16.780005 5.940477
C 2.453973 13.181004 5.947392
C 3.681986 11.038094 5.954811
C 1.210892 11.009854 5.981364
C 0.005179 0.370340 5.945215
C 2.568413 8.911261 6.334799
N 4.882017 8.927873 5.759983
N 2.565148 6.063350 5.707448
N -0.061381 6.044456 6.178412
Ag 1.249127 7.558260 7.204276
