31
Title                                   
C 0.549043 0.775103 1.852384
C 9.180395 1.487556 1.740402
C 0.554597 7.893005 1.855601
C 9.194704 2.908253 1.755201
C 0.550826 5.041112 1.872754
C 9.208359 5.769306 1.776634
C 0.547607 3.615456 1.868570
C 9.195631 7.184819 1.761371
C 3.027873 0.768067 2.026453
C 1.774548 1.471696 1.969140
C 3.030564 7.875679 2.018499
C 1.770441 2.900054 1.979218
C 2.985150 5.034295 2.097609
C 1.771577 5.752026 1.973141
C 2.985970 3.606722 2.115974
C 1.777940 7.180757 1.962301
C 5.458413 0.767747 1.885819
C 4.242714 1.514012 2.067444
C 5.466609 7.851207 1.890386
C 4.240890 7.112949 2.051039
C 7.939504 0.765239 1.673704
C 6.700026 1.472637 1.671356
C 7.949500 7.893548 1.692011
C 6.731382 2.883762 1.573923
C 7.979370 5.075779 1.654850
C 7.953446 3.626075 1.624352
C 6.726030 7.174347 1.713063
N 4.204957 2.930967 2.254203
N 6.777414 5.790615 1.646607
N 4.199667 5.706742 2.200016
Ta 5.766227 4.312512 2.595275
