31
Title                                   
C -0.006493 1.807153 5.978355
C 1.224786 2.540810 5.985661
C 1.224315 3.976228 5.997415
C -0.015597 4.707035 5.992234
C 0.013849 10.308912 5.986916
C 1.241564 12.442335 5.980491
C 0.004927 14.610580 5.967315
C 1.235107 15.336382 5.965301
C 1.232426 16.776220 5.966922
C 0.005971 13.164695 5.975081
C 2.464833 1.811958 5.982823
C 3.703662 2.527868 5.987036
C 3.698167 3.969576 6.001693
C 2.466609 0.370555 5.971913
C 3.727074 6.747734 6.022826
C 3.742417 8.225535 6.017941
C 2.462351 4.695855 6.021878
C 2.469937 10.288974 6.007288
C 3.710348 12.458090 5.981106
C 2.467510 14.611497 5.968885
C 3.707226 15.329284 5.966173
C 3.704081 16.773979 5.967745
C 2.472389 13.167533 5.978215
C 3.712603 11.027997 5.990777
C -0.004196 0.367496 5.969380
C 2.498957 8.882389 6.039544
C 0.014478 8.909469 5.983252
C 2.513814 6.109938 6.063627
N -0.037568 6.083988 5.974229
N 1.243458 11.035081 5.988688
Cu 1.243409 7.493002 6.020490
