32
Title                                   
C 0.555240 0.774947 1.724899
C 9.183842 1.487076 1.774393
C 0.555164 7.888893 1.692833
C 9.186742 2.905886 1.849454
C 0.554675 5.039720 1.752714
C 9.193069 5.735340 1.763682
C 0.555107 3.613540 1.823857
C 9.184117 7.169071 1.724894
C 3.015339 0.761659 1.760243
C 1.796557 1.486898 1.767917
C 3.027355 7.896717 1.756926
C 1.792950 2.905397 1.842505
C 3.016214 5.039495 1.947403
C 1.785688 5.735327 1.755602
C 1.795690 7.169032 1.717957
C 5.490479 0.759329 1.898615
C 4.250850 1.463294 1.866327
C 4.258002 2.878896 2.021555
C 4.246537 7.183226 1.944364
C 7.965340 0.761936 1.771035
C 6.730044 1.463502 1.875786
C 7.953077 7.897104 1.768265
C 6.721787 2.879086 2.030680
C 7.963636 5.040179 1.963496
C 6.734042 7.183847 1.956773
C 4.183058 5.794235 2.203053
C 5.488789 3.525637 2.292565
C 6.797577 5.795371 2.220869
N 5.490310 7.883873 1.946265
N 3.028054 3.610064 1.953519
N 7.951736 3.610276 1.967132
Cr 5.482695 5.072338 3.377921
