32
Title                                   
C 0.551043 0.775931 1.689255
C 9.189442 1.495905 1.703138
C 0.566997 7.888720 1.702183
C 9.174886 2.923760 1.763475
C 0.551510 5.057652 1.758435
C 0.547759 3.625689 1.767888
C 9.209257 7.180211 1.748101
C 3.020071 0.755349 1.766100
C 1.794001 1.477151 1.732430
C 1.793734 2.905209 1.796616
C 2.991508 5.033014 2.033484
C 1.783640 5.764514 1.812489
C 3.039322 3.595817 1.968135
C 1.803665 7.194508 1.761860
C 5.498382 0.734183 1.855199
C 5.489944 7.871839 1.989331
C 4.259091 2.835531 2.017069
C 4.218478 7.187935 2.084760
C 7.959727 0.762487 1.713399
C 6.712633 1.457459 1.783139
C 7.977326 7.892712 1.773144
C 6.705357 2.877441 1.937913
C 7.984185 5.087715 1.972296
C 7.921712 3.644354 1.898228
C 6.755125 7.192106 1.987768
C 4.117475 5.831221 2.377715
N 5.468360 3.421707 2.248217
N 6.880512 5.840539 2.268684
N 3.017097 7.911129 1.807688
N 4.241238 1.425904 1.848588
N 9.203180 5.755184 1.786243
Ru 5.507105 5.008315 3.360528
