32
Title                                   
C 0.556331 0.787757 1.687690
C 9.190512 1.493879 1.689891
C 0.573960 7.908494 1.683165
C 9.169961 2.928784 1.709352
C 0.573769 5.052660 1.696863
C 9.215860 5.764269 1.684337
C 0.562697 3.622422 1.733013
C 9.212094 7.186172 1.689686
C 3.018550 0.750087 1.813416
C 1.807313 1.483681 1.751049
C 1.809043 2.915018 1.818271
C 2.996100 5.059053 2.171019
C 1.805060 5.767156 1.811244
C 3.040078 3.616056 2.043474
C 1.798328 7.196338 1.762275
C 5.491113 0.708298 1.928720
C 5.478196 7.858874 2.109251
C 4.281193 2.844920 2.024972
C 4.191330 7.182603 2.268820
C 7.958651 0.759456 1.727032
C 6.710601 1.440388 1.800410
C 7.972022 7.896515 1.759363
C 6.683478 2.861923 1.850054
C 7.966433 5.087791 1.823704
C 7.915336 3.633433 1.777431
C 6.766335 7.160831 1.986747
C 4.056409 5.861701 2.684747
N 5.468974 3.454168 2.043173
N 6.844880 5.807870 2.084889
N 3.022980 7.907174 1.846368
N 4.239223 1.419614 1.911311
Cu 5.556950 4.993803 3.341762
