31
Title                                   
C 0.013090 1.817717 5.889090
C 1.246879 2.546918 5.913475
C 1.253090 3.997304 5.977702
C 0.010280 4.700769 6.006464
C -0.026518 10.286167 6.029299
C 1.219000 12.447422 5.916601
C -0.004842 14.618834 5.873613
C 1.231884 15.340449 5.869384
C 1.237637 16.781160 5.867969
C -0.009672 13.178938 5.894433
C 2.476351 1.817080 5.889753
C 3.718109 2.536343 5.900126
C 3.724464 3.967328 5.949643
C 2.472804 0.376669 5.870190
C 3.740177 6.742752 6.120344
C 3.715041 8.201808 6.128891
C 2.498916 4.707769 6.012042
C 2.451506 10.285599 5.997225
C 3.699015 12.454525 5.902297
C 2.464853 14.614475 5.871916
C 3.703579 15.341735 5.866898
C 3.709186 16.782567 5.865774
C 2.459007 13.173562 5.890528
C 3.691653 11.018237 5.950303
C 1.212126 11.006985 5.983607
C 0.005268 0.376734 5.870222
C 2.485723 8.873275 6.080673
N 4.915479 8.905052 6.188379
N 2.540195 6.080704 6.129769
N -0.013375 6.075867 6.108494
Ti 1.245589 7.503405 6.886098
