32
Title                                   
C 0.555952 0.780380 1.674687
C 9.195585 1.481643 1.703151
C 0.565057 7.902461 1.677233
C 9.195035 2.904641 1.769503
C 0.565784 5.043021 1.695446
C 9.203349 5.747870 1.746996
C 0.570612 3.615755 1.728850
C 9.197006 7.175193 1.710335
C 3.014587 0.763270 1.760073
C 1.796456 1.487404 1.714877
C 1.818747 2.914699 1.752503
C 3.002293 5.073129 1.930395
C 1.790694 5.765462 1.735808
C 3.070197 3.642472 1.896788
C 1.783364 7.195713 1.731447
C 5.490003 0.736505 1.876898
C 4.251372 1.452264 1.856565
C 5.465038 7.869879 1.956206
C 4.271915 2.855493 1.989039
C 4.198722 7.208234 1.987560
C 7.965874 0.758562 1.720653
C 6.730429 1.442750 1.832744
C 7.962370 7.887797 1.751549
C 6.732304 2.848420 1.996237
C 7.985388 5.046074 1.973505
C 6.821610 5.797761 2.259526
C 7.950706 3.604842 1.936721
C 6.740430 7.174061 1.976383
N 4.097827 5.871297 2.304343
N 5.509658 3.446906 2.297337
N 3.006402 7.912824 1.789826
Hf 5.428996 5.004406 3.580317
