31
Title                                   
C 0.552054 0.759369 1.873832
C 9.191226 1.466394 1.881859
C 0.552031 7.894709 1.873990
C 9.221361 2.888845 1.884408
C 0.567590 5.037354 1.878372
C 9.221521 5.765248 1.884145
C 0.567423 3.616888 1.878285
C 9.191190 7.187724 1.881795
C 3.019000 0.772305 1.896317
C 1.784600 1.470025 1.881248
C 3.018931 7.881913 1.896416
C 1.784712 2.897742 1.883342
C 3.005487 5.058499 1.897980
C 1.784784 5.756517 1.883598
C 3.005455 3.595722 1.897768
C 1.784568 7.184219 1.881569
C 5.476447 0.775387 1.916205
C 4.229963 1.533963 1.910013
C 5.476514 7.878733 1.916043
C 4.229953 7.120365 1.910395
C 7.944624 0.772482 1.897614
C 6.718339 1.534508 1.913857
C 7.944693 7.881679 1.897265
C 6.766809 2.964060 1.919119
C 8.021631 5.045722 1.901122
C 6.767289 5.690608 1.917983
C 8.021462 3.608344 1.901817
C 6.718537 7.119952 1.912894
N 4.194564 2.916404 1.911499
N 4.194479 5.738199 1.911667
Ni 5.484136 4.328164 1.926886
