31
Title                                   
C -0.025548 1.802920 5.926643
C 1.199296 2.536168 5.934772
C 1.182533 3.977693 5.979919
C -0.054423 4.711442 6.059928
C 0.039697 10.283620 6.064227
C 1.257391 12.443563 5.925948
C 0.010020 14.607448 5.900532
C 1.237275 15.333448 5.897709
C 1.225445 16.774532 5.902966
C 0.021448 13.162280 5.913853
C 2.445122 1.810935 5.901311
C 3.684742 2.529039 5.907924
C 3.673372 3.966520 5.920606
C 2.457355 0.370725 5.897773
C 3.674612 6.789048 6.021946
C 3.720575 8.238313 6.084864
C 2.424929 4.684367 5.890174
C 2.509167 10.314204 5.942018
C 3.726677 12.456327 5.905360
C 2.471336 14.608557 5.891341
C 3.708870 15.327289 5.893291
C 3.697419 16.769230 5.897720
C 2.482489 13.163427 5.898401
C 3.741817 11.033315 5.932974
C -0.013973 0.362924 5.910948
C 0.016600 8.896378 6.290707
C 2.466063 6.089967 5.823465
N 2.512270 8.949390 5.978852
N -0.076509 6.096140 6.310035
N 1.272078 11.009364 5.976891
Nb 1.454271 7.459574 6.918103
