31
Title                                   
C 0.007094 1.802193 5.953836
C 1.237782 2.526725 5.966800
C 1.237794 3.974426 5.998753
C -0.011245 4.664168 6.015724
C -0.001814 10.327783 6.025001
C 1.237676 12.474629 5.976832
C 0.002867 14.632416 5.944400
C 1.237544 15.349895 5.939224
C 1.237509 16.779949 5.936795
C 0.003032 13.201892 5.963272
C 2.468303 1.802108 5.953862
C 3.709757 2.507514 5.965051
C 3.709782 3.932458 5.996424
C 2.470928 0.368987 5.939384
C 3.709575 6.678727 6.058690
C 3.709466 8.171092 6.063878
C 2.486726 4.664202 6.015387
C 2.477118 10.327682 6.025074
C 3.709620 12.491948 5.975977
C 2.472297 14.632570 5.944391
C 3.709667 15.349550 5.938927
C 3.709614 16.784071 5.936508
C 2.472202 13.202045 5.963315
C 3.709650 11.062428 6.008297
C 1.237755 11.050866 6.008261
C 0.004179 0.369040 5.939331
C 2.540888 8.925453 6.052146
C 4.878073 8.925571 6.051996
N 2.545408 6.041864 6.048361
N -0.070309 6.041835 6.049120
Zn 1.237554 7.494062 6.046184
