32
Title                                   
C 0.549911 0.781231 1.734449
C 9.182200 1.494294 1.781876
C 0.560706 7.893904 1.699236
C 9.170489 2.922209 1.846157
C 0.547880 5.041257 1.768907
C 9.203787 5.759931 1.748467
C 0.553774 3.614084 1.831758
C 9.197458 7.189783 1.703111
C 3.005763 0.746251 1.767282
C 1.790626 1.482928 1.784154
C 3.029016 7.879770 1.777924
C 1.782226 2.905358 1.871364
C 3.009101 5.036737 2.036003
C 1.787983 5.733118 1.799029
C 1.794203 7.161416 1.747914
C 5.478780 0.740519 1.874634
C 4.238453 1.439574 1.856975
C 4.232593 2.862832 2.020978
C 4.234414 7.149480 1.983962
C 7.957996 0.775311 1.764977
C 6.711039 1.454890 1.858622
C 7.963241 7.914270 1.727797
C 6.682473 2.875261 2.004741
C 7.957718 5.083985 1.884331
C 7.920524 3.640826 1.939969
C 6.748277 7.191564 1.859110
C 4.180774 5.777013 2.316679
C 5.438031 3.514626 2.232884
N 6.803534 5.842686 2.012239
N 5.494906 7.854605 1.920022
N 3.009764 3.601653 2.013297
Sc 5.716120 5.049827 3.544653
