32
Title                                   
C 0.553175 0.784229 1.664380
C 9.185111 1.494981 1.678366
C 0.570443 7.904835 1.669781
C 9.170278 2.928515 1.734523
C 0.562958 5.054050 1.696297
C 9.203140 5.763899 1.739644
C 0.556835 3.622509 1.717857
C 9.209089 7.189624 1.713092
C 3.018384 0.755321 1.773627
C 1.799901 1.481520 1.714957
C 1.801343 2.908023 1.764876
C 2.999094 5.039073 2.041960
C 1.798671 5.764473 1.771289
C 3.040318 3.606240 1.972121
C 1.799784 7.194046 1.733160
C 5.493027 0.722940 1.873248
C 5.479388 7.869844 2.022152
C 4.257158 2.830568 2.062837
C 4.214015 7.193114 2.124663
C 7.954454 0.766530 1.696148
C 6.705114 1.454145 1.787304
C 7.970546 7.900556 1.756902
C 6.701900 2.858825 1.964609
C 7.977109 5.080464 1.946196
C 7.914061 3.634666 1.896160
C 6.761558 7.187369 2.000317
C 4.111801 5.832099 2.454838
N 5.470582 3.403742 2.349774
N 6.863976 5.838510 2.292512
N 3.020599 7.914456 1.809545
N 4.234413 1.424919 1.876317
Tc 5.535539 5.007104 3.414049
