32
Title                                   
C 0.552014 0.781120 1.787079
C 9.190008 1.494149 1.799649
C 0.563255 7.892655 1.789451
C 9.180056 2.921814 1.850015
C 0.556970 5.057272 1.811976
C 0.552284 3.624887 1.829077
C 9.207166 7.178888 1.823586
C 3.022760 0.757029 1.817842
C 1.799383 1.484942 1.809219
C 1.804001 2.915907 1.830310
C 3.017100 5.059483 1.892348
C 1.777059 5.766393 1.816108
C 3.064100 3.615368 1.883808
C 1.792751 7.197275 1.802312
C 5.490938 0.725332 1.855995
C 5.479262 7.842830 1.903736
C 4.280709 2.846120 1.937641
C 4.214602 7.153041 1.895525
C 7.959257 0.758786 1.791530
C 6.710222 1.448264 1.837471
C 7.975636 7.888288 1.826739
C 6.696918 2.878270 1.958844
C 7.979778 5.084019 2.009616
C 7.924623 3.641020 1.954187
C 6.754570 7.167907 1.964212
N 4.160076 5.821459 1.985982
N 5.467980 3.462577 2.113575
N 6.856635 5.814483 2.207409
N 3.009834 7.909449 1.822863
N 4.243741 1.418834 1.849217
N 9.203354 5.753539 1.848442
Cr 5.446721 5.049793 3.407735
