31
Title                                   
C 0.010489 1.806210 5.811448
C 1.242898 2.533161 5.868895
C 1.248063 3.973253 6.007969
C -0.003231 4.669360 6.070464
C -0.025721 10.344498 6.152990
C 1.224986 12.469363 5.878059
C -0.004997 14.627823 5.753269
C 1.231257 15.348362 5.733550
C 1.236005 16.780382 5.733370
C -0.009829 13.196186 5.824381
C 2.472286 1.805998 5.805941
C 3.714618 2.513567 5.840334
C 3.717743 3.937525 5.947954
C 2.470715 0.372099 5.744793
C 3.727236 6.692835 6.216116
C 3.715966 8.194859 6.257386
C 2.499445 4.668831 6.036907
C 2.456596 10.306386 6.034925
C 3.695501 12.482605 5.853498
C 2.464980 14.627886 5.742641
C 3.703689 15.347508 5.728758
C 3.708181 16.784418 5.728366
C 2.461102 13.196210 5.803162
C 3.692078 11.053153 5.984180
C 1.218756 11.050842 6.029680
C 0.003982 0.372041 5.748871
C 2.488969 8.888276 6.073296
C 4.907255 8.954815 6.462328
N 2.541461 6.043613 6.164022
N -0.040442 6.031998 6.262084
Y 1.316460 7.484086 7.401560
