31
Title                                   
C -0.013830 1.807147 5.947069
C 1.217070 2.536654 5.953323
C 1.212694 3.969413 5.977584
C -0.025807 4.695875 6.007951
C 0.022051 10.305023 5.992724
C 1.246570 12.463169 5.955333
C 0.000614 14.621912 5.944078
C 1.235991 15.344076 5.943642
C 1.230033 16.778867 5.941280
C 0.005774 13.185587 5.948056
C 2.458034 1.811355 5.941674
C 3.695412 2.526611 5.945325
C 3.687513 3.964860 5.963866
C 2.464009 0.374189 5.939358
C 3.726514 6.736835 6.034367
C 3.748585 8.198970 6.041241
C 2.448686 4.690100 5.969730
C 2.485720 10.294295 6.008213
C 3.717240 12.464098 5.953051
C 2.475187 14.622475 5.945151
C 3.708009 15.343710 5.942181
C 3.701821 16.781824 5.939298
C 2.482167 13.186908 5.950349
C 3.722133 11.023653 5.977839
C 1.253331 11.035064 5.980501
C -0.007930 0.371184 5.941463
C 2.503293 8.867846 6.083595
C 0.020065 8.886440 6.045672
C 2.495195 6.105258 5.998863
N -0.035343 6.074727 6.086601
Co 1.261615 7.490024 6.401819
