32
Title                                   
C 0.558680 0.778236 1.723374
C 9.193128 1.494655 1.715998
C 0.573908 7.889471 1.733939
C 9.167431 2.931380 1.721028
C 0.564043 5.055277 1.791641
C 0.549299 3.628343 1.784043
C 9.221456 7.176235 1.733296
C 3.031929 0.740241 1.809422
C 1.807262 1.475002 1.769621
C 1.806879 2.907502 1.835829
C 3.017129 5.031370 2.162334
C 1.800078 5.760884 1.893145
C 3.045060 3.604642 2.002751
C 1.814648 7.184486 1.815866
C 5.502189 0.718685 1.888296
C 5.497259 7.853354 2.032654
C 4.302644 2.853527 1.901130
C 4.232713 7.156199 2.203888
C 7.967034 0.760415 1.745786
C 6.711282 1.454796 1.774521
C 7.978888 7.890347 1.769809
C 6.672992 2.891362 1.742873
C 7.941303 5.104182 1.750355
C 7.913542 3.644557 1.715930
C 6.760381 7.156879 1.887656
C 4.122586 5.831478 2.586145
N 5.449163 3.490688 1.810317
N 6.820878 5.796329 1.846556
N 3.028175 7.886171 1.837421
N 4.247719 1.410636 1.876661
N 9.217008 5.761108 1.738743
Ag 5.417077 5.092756 4.112471
