25
Title                                   
C 7.788578 1.767454 1.922370
C 7.782150 4.290062 1.870629
C 7.788856 6.812002 1.922911
C 1.693701 0.721264 1.999874
C 0.649034 1.763017 1.923007
C 1.693975 7.857703 2.000267
C 1.360004 5.536302 1.877572
C 0.670807 4.290097 1.866444
C 1.358698 3.043219 1.879591
C 0.649568 6.815608 1.923214
C 4.219572 0.734868 2.028969
C 2.969463 1.410094 2.027367
C 4.219506 7.845361 2.029683
C 2.969847 7.169908 2.027325
C 6.734566 0.721004 1.966547
C 5.456108 1.440793 1.963809
C 6.734799 7.858820 1.967417
C 7.085118 5.531793 1.880453
C 7.085806 3.048243 1.880526
C 5.455980 7.139364 1.965044
C 2.794897 2.839970 1.907123
C 2.796802 5.740406 1.904249
C 5.652287 2.876703 1.850515
C 5.651338 5.703887 1.850445
W 4.109079 4.288067 1.238748
