31
Title                                   
C 0.543273 0.750414 1.652283
C 9.188970 1.467090 1.779393
C 0.549123 7.888380 1.652542
C 9.220130 2.889998 1.789106
C 0.552074 5.035780 1.613511
C 9.217272 5.762180 1.791745
C 0.550459 3.616787 1.610967
C 9.190187 7.182949 1.778019
C 3.002636 0.763576 1.767405
C 1.771709 1.462303 1.644517
C 3.010929 7.888666 1.764709
C 1.761851 2.883535 1.607009
C 2.983805 5.036165 1.737515
C 1.772104 5.749914 1.604386
C 2.967883 3.574811 1.744677
C 1.785561 7.176280 1.638685
C 5.475889 0.788363 2.133458
C 4.205463 1.511459 1.969529
C 5.474444 7.913350 2.122019
C 4.160130 5.769181 1.980301
C 4.230022 7.166940 1.963449
C 7.964099 0.767993 1.960273
C 6.751811 1.512089 2.184901
C 7.964911 7.890177 1.957105
C 6.864620 2.894918 2.367661
C 8.045575 5.052246 2.086896
C 6.845494 5.768636 2.295405
C 8.053488 3.600098 2.104157
C 6.740358 7.163282 2.159869
N 4.118273 2.871353 1.976214
Ag 5.478830 4.343131 2.381596
