32
Title                                   
C 0.550671 0.766222 1.637386
C 9.190573 1.479858 1.656070
C 0.563110 7.887110 1.654837
C 9.182667 2.912148 1.717981
C 0.553142 5.056329 1.713257
C 0.555830 3.629482 1.702750
C 9.202115 7.163292 1.707091
C 3.014943 0.761518 1.744715
C 1.800760 1.476632 1.688912
C 1.795553 2.915925 1.745065
C 2.987922 5.036730 2.046456
C 1.785813 5.769234 1.787167
C 3.020774 3.606266 1.975642
C 1.800506 7.192797 1.725253
C 5.482483 0.745634 1.845058
C 5.474664 7.891669 1.994369
C 4.248555 2.844403 2.086357
C 4.211883 7.192207 2.089987
C 7.961769 0.754284 1.694709
C 6.718538 1.462424 1.800083
C 7.963004 7.880701 1.756350
C 6.737038 2.871132 2.009782
C 7.997720 5.065738 2.021801
C 7.969332 3.615907 1.926896
C 6.737260 7.198451 2.012177
C 4.119476 5.833869 2.415518
C 5.485859 3.450729 2.383863
C 6.855290 5.821074 2.360733
N 3.015312 7.909526 1.780565
N 4.238345 1.437641 1.844129
N 9.206612 5.756104 1.756726
Ru 5.506244 5.026156 3.431814
