31
Title                                   
C -0.042007 1.808940 5.905096
C 1.182279 2.537515 5.921875
C 1.157356 3.975967 5.988787
C -0.090016 4.691128 6.091049
C 0.090667 10.296672 5.942108
C 1.292912 12.449807 5.928804
C 0.022967 14.615015 5.877942
C 1.250125 15.338994 5.880232
C 1.225321 16.777844 5.877886
C 0.047868 13.174127 5.891312
C 2.427481 1.813030 5.884153
C 3.659075 2.529414 5.901095
C 3.629527 3.968594 5.950397
C 2.452462 0.372219 5.872947
C 3.667735 6.747242 6.148214
C 3.751269 8.239562 6.149876
C 2.384421 4.690718 5.937620
C 2.565166 10.296078 6.095838
C 3.760409 12.457531 5.907986
C 2.493322 14.616355 5.887398
C 3.722316 15.337620 5.874931
C 3.697154 16.778844 5.872279
C 2.517512 13.177845 5.912279
C 3.789473 11.018520 5.956170
C 1.317694 11.011214 5.994190
C -0.017897 0.370542 5.882170
C 0.013164 8.868360 5.948309
C 2.462086 6.118606 5.945876
N 2.603703 8.936181 6.344846
N -0.128498 6.050534 6.340986
Ir 1.237373 7.493130 6.588550
