32
Title                                   
C 0.555418 0.781507 1.649267
C 9.182559 1.490118 1.708386
C 0.555201 7.890486 1.637142
C 9.181267 2.911782 1.798870
C 0.554298 5.041165 1.703562
C 9.191515 5.738119 1.747790
C 0.555061 3.619379 1.764855
C 9.185691 7.173513 1.698143
C 3.016931 0.762540 1.689229
C 1.798442 1.489646 1.687686
C 3.031721 7.897214 1.719571
C 1.799064 2.911320 1.777949
C 3.000119 5.040636 1.975251
C 1.787659 5.737934 1.723734
C 1.794924 7.173475 1.675587
C 5.490999 0.748648 1.867685
C 4.248820 1.461941 1.824266
C 4.252056 2.862339 2.031216
C 4.238982 7.194483 1.982465
C 7.965127 0.762382 1.719846
C 6.733335 1.462167 1.847003
C 7.950137 7.897286 1.750699
C 6.729212 2.862596 2.054523
C 7.981099 5.041914 2.013471
C 6.742014 7.194548 2.008903
C 4.137034 5.818626 2.387671
C 5.486664 3.473755 2.448564
C 6.841520 5.819550 2.421171
N 5.490652 7.876831 1.963886
N 3.026705 3.613639 1.936474
N 7.954646 3.614051 1.971562
Re 5.474892 5.047601 3.527075
