31
Title                                   
C 0.556443 0.771930 1.738339
C 9.185073 1.483921 1.766453
C 0.560471 7.894671 1.733150
C 9.202269 2.912620 1.767821
C 0.560188 5.038967 1.715449
C 9.209072 5.765970 1.766394
C 0.559488 3.617927 1.718120
C 9.198472 7.190762 1.766816
C 3.023919 0.762873 1.842066
C 1.783738 1.470242 1.772779
C 3.025820 7.875952 1.825646
C 1.781987 2.904577 1.765582
C 3.007452 5.045081 1.851541
C 1.780976 5.745047 1.749629
C 3.006191 3.591965 1.882224
C 1.787591 7.178809 1.755231
C 5.475084 0.765883 2.000351
C 4.237395 1.495799 1.972896
C 5.483147 7.847933 1.988074
C 4.240653 7.124207 1.931521
C 7.950325 0.775707 1.837644
C 6.722721 1.501871 1.972491
C 7.960987 7.888877 1.839839
C 6.766530 2.920895 2.062862
C 7.992947 5.080980 1.903540
C 7.976782 3.621453 1.903431
C 6.749662 7.144048 1.969123
N 4.189862 2.894998 2.070208
N 6.811145 5.763456 2.062681
N 4.194871 5.737430 1.979848
Sc 5.460110 4.327190 2.907554
