32
Title                                   
C 0.555406 0.781822 1.644417
C 9.185479 1.490331 1.697347
C 0.565808 7.897126 1.645135
C 9.174279 2.921961 1.777278
C 0.548412 5.039466 1.710428
C 9.199042 5.759853 1.766441
C 0.555307 3.619905 1.747313
C 9.200123 7.189566 1.706225
C 3.015744 0.753536 1.700101
C 1.798509 1.489156 1.687041
C 3.036991 7.886285 1.730654
C 1.794751 2.908750 1.773042
C 2.994171 5.030676 1.990399
C 1.788074 5.737293 1.741636
C 1.798977 7.166386 1.693954
C 5.488031 0.732286 1.886521
C 4.244751 1.446081 1.843988
C 4.232279 2.854911 2.049053
C 4.239067 7.174148 1.978328
C 7.963971 0.768930 1.717014
C 6.721715 1.451907 1.867105
C 7.963895 7.903291 1.737611
C 6.709337 2.853525 2.079584
C 7.983008 5.077154 2.010605
C 7.930239 3.633727 1.972617
C 6.755722 7.192593 1.966464
C 4.138183 5.803107 2.400995
C 5.454276 3.461815 2.446456
N 6.861796 5.868047 2.361509
N 5.496708 7.856026 1.949973
N 3.014853 3.607496 1.944062
Re 5.524853 5.054037 3.490204
