32
Title                                   
C 0.550995 0.782147 1.697982
C 9.188395 1.494928 1.700190
C 0.565013 7.893873 1.715126
C 9.178075 2.921394 1.752049
C 0.559246 5.056425 1.739890
C 0.554163 3.625408 1.749497
C 9.206690 7.182317 1.744223
C 3.019362 0.759866 1.770407
C 1.798622 1.485178 1.739362
C 1.801596 2.917523 1.780889
C 2.994914 5.055998 2.000205
C 1.779222 5.764959 1.798680
C 3.061420 3.617021 1.935306
C 1.792898 7.201179 1.776366
C 5.487228 0.726278 1.850667
C 5.475254 7.845932 1.954315
C 4.262848 2.832708 2.006282
C 4.202102 7.180744 2.025258
C 7.959620 0.758898 1.705541
C 6.711575 1.448455 1.785396
C 7.974259 7.889067 1.759417
C 6.711671 2.863853 1.954507
C 7.995197 5.080566 1.971868
C 7.925897 3.639702 1.898907
C 6.754325 7.182014 1.965428
N 4.084824 5.858756 2.366391
N 5.476066 3.407588 2.309108
N 6.893607 5.833059 2.293060
N 3.016381 7.909079 1.811452
N 4.241435 1.426242 1.849014
N 9.206545 5.751970 1.771261
Nb 5.504316 5.018062 3.535455
