32
Title                                   
C 0.562477 0.782046 1.686626
C 9.196300 1.485601 1.745559
C 0.555583 7.900735 1.678094
C 9.191552 2.909847 1.852579
C 0.558902 5.042598 1.773056
C 9.195737 5.750643 1.837948
C 0.567648 3.617646 1.813174
C 9.190703 7.176445 1.753996
C 3.020546 0.772044 1.704876
C 1.800844 1.501076 1.718985
C 3.020745 7.912980 1.691237
C 1.818332 2.923847 1.795363
C 3.030930 5.089395 1.868924
C 1.783453 5.762597 1.741374
C 3.082963 3.644305 1.874257
C 1.786053 7.186478 1.687192
C 5.492963 0.728641 1.865691
C 4.268132 1.447404 1.800659
C 4.300150 2.859799 1.906501
C 4.235102 7.190002 1.845505
C 7.973105 0.757774 1.745953
C 6.731530 1.434662 1.845532
C 7.955961 7.890700 1.769249
C 6.722610 2.849363 1.987423
C 7.970103 5.061108 2.100419
C 6.801066 5.830199 2.389260
C 7.946560 3.614280 2.020796
C 6.745414 7.169858 2.009132
N 4.190351 5.851200 2.027520
N 5.511426 3.477034 2.147517
N 5.479851 7.868148 1.934187
Y 5.246669 4.922736 3.694916
