31
Title                                   
C 0.004153 1.815234 5.919257
C 1.234786 2.551820 5.935542
C 1.233624 4.009585 5.996593
C -0.011494 4.728634 6.076062
C -0.024458 10.276399 6.066314
C 1.225747 12.425136 5.926608
C -0.000342 14.603231 5.897375
C 1.230854 15.328453 5.891039
C 1.233466 16.775796 5.890772
C -0.002196 13.150734 5.915446
C 2.468843 1.819357 5.900654
C 3.711997 2.538641 5.914640
C 3.716208 3.971426 5.947725
C 2.468692 0.372448 5.887145
C 3.704581 6.784991 6.062629
C 3.689752 8.229433 6.069087
C 2.488684 4.709801 5.939556
C 2.471340 10.284100 5.925261
C 3.701181 12.450874 5.913489
C 2.459878 14.600732 5.889528
C 3.702105 15.322672 5.887907
C 3.704771 16.771689 5.886570
C 2.457637 13.147733 5.902212
C 3.698178 11.024369 5.950989
C -0.000983 0.369375 5.897078
N 2.499811 8.917566 5.796044
N 4.880393 8.926469 6.375676
N 2.522078 6.075362 5.877731
N -0.047823 6.095979 6.312894
N 1.217815 10.962877 5.970489
Sc 1.447221 7.517233 6.878889
