31
Title                                   
C 0.551370 0.769429 1.875259
C 9.185597 1.474774 1.882621
C 0.555729 7.899945 1.874078
C 9.208288 2.904432 1.883751
C 0.559630 5.037705 1.876755
C 9.213396 5.768507 1.881890
C 0.562897 3.619862 1.877579
C 9.196140 7.191204 1.881214
C 3.027684 0.778370 1.896214
C 1.787041 1.473265 1.882462
C 3.025764 7.881817 1.895616
C 1.785077 2.901979 1.883935
C 2.992902 5.056091 1.897735
C 1.776696 5.757728 1.882317
C 3.000999 3.602739 1.898984
C 1.786479 7.188224 1.881206
C 5.483910 0.764636 1.916554
C 4.245293 1.530363 1.911750
C 5.483192 7.844698 1.916273
C 4.232763 7.109798 1.910454
C 7.941904 0.772200 1.896749
C 6.716705 1.518750 1.913030
C 7.949917 7.876569 1.895799
C 6.749433 2.959916 1.917732
C 8.006593 5.065766 1.898319
C 8.000107 3.623415 1.899652
C 6.736798 7.104494 1.911381
N 4.214824 2.936907 1.913927
N 6.792020 5.708535 1.914985
N 4.187245 5.725301 1.912869
Co 5.484980 4.294623 1.938210
