31
Title                                   
C 0.538029 0.762901 1.631828
C 9.184157 1.477934 1.791664
C 0.538318 7.891240 1.631435
C 9.202670 2.901719 1.876620
C 0.546603 5.037275 1.662144
C 9.202412 5.752238 1.874756
C 0.546691 3.617272 1.662930
C 9.184367 7.176350 1.790221
C 3.007193 0.765273 1.646980
C 1.774097 1.474739 1.581414
C 3.007271 7.889058 1.646156
C 1.773471 2.903547 1.556432
C 3.027579 5.072494 1.555418
C 1.773622 5.750951 1.555972
C 3.027435 3.581859 1.555749
C 1.774544 7.179624 1.580388
C 5.465312 0.770103 2.043334
C 4.220588 1.517081 1.783851
C 5.465302 7.883912 2.041975
C 4.221020 7.137171 1.781478
C 7.956942 0.763551 1.924257
C 6.741658 1.482384 2.211097
C 7.957042 7.890663 1.923522
C 6.865443 2.826644 2.588092
C 8.023016 5.067680 2.289470
C 6.865581 5.827520 2.585071
C 8.023179 3.586319 2.291357
C 6.741548 7.171810 2.208983
N 4.186708 2.879488 1.688074
N 4.187304 5.774634 1.686445
Cd 5.412271 4.328609 3.172188
