32
Title                                   
C 0.552042 0.788107 1.744028
C 9.177998 1.503013 1.769982
C 0.561218 7.896998 1.722124
C 9.167150 2.922269 1.825108
C 0.555150 5.044133 1.759936
C 9.198634 5.746651 1.757515
C 0.547770 3.616526 1.828334
C 9.196472 7.182092 1.735668
C 3.014289 0.756428 1.795425
C 1.796074 1.488803 1.791906
C 3.032562 7.887666 1.814131
C 1.794626 2.906043 1.867655
C 3.018292 5.040719 2.020559
C 1.791149 5.733737 1.798030
C 1.798918 7.170799 1.768135
C 5.495514 0.732978 1.921047
C 4.250918 1.442015 1.887535
C 4.274864 2.854531 2.001158
C 4.243994 7.171318 2.026942
C 7.963338 0.767938 1.766432
C 6.719792 1.457668 1.859910
C 7.964242 7.907622 1.768319
C 6.677460 2.871122 1.945687
C 7.949398 5.084026 1.887797
C 6.760306 7.174964 1.935340
C 4.155363 5.804731 2.383651
N 5.471772 3.490142 2.173682
N 6.821858 5.825532 2.104220
N 5.504586 7.861656 1.981503
N 3.045815 3.604342 1.984834
N 7.898106 3.638803 1.878498
Co 5.534095 5.037820 3.208409
