32
Title                                   
C 0.555476 0.792773 1.811432
C 9.179299 1.498766 1.828071
C 0.556513 7.898633 1.812424
C 9.176403 2.918038 1.857880
C 0.554346 5.044183 1.809125
C 9.192889 5.742033 1.847141
C 0.554917 3.618888 1.835678
C 9.190582 7.179250 1.839734
C 3.019351 0.763873 1.798985
C 1.801326 1.498798 1.811150
C 3.028552 7.893779 1.822149
C 1.802859 2.917518 1.831465
C 3.029868 5.064748 1.883496
C 1.788546 5.741728 1.821746
C 1.790660 7.178787 1.816780
C 5.490543 0.732439 1.885236
C 4.258655 1.452148 1.858100
C 4.286821 2.871034 1.934863
C 4.232153 7.155427 1.894607
C 7.961627 0.763175 1.818960
C 6.722112 1.454430 1.875471
C 7.954802 7.895129 1.845325
C 6.693672 2.871573 1.964549
C 7.952353 5.064306 1.950204
C 6.748720 7.156550 1.934526
N 4.197180 5.784255 2.002509
N 5.487869 3.509817 2.149518
N 6.802036 5.795890 2.136971
N 5.492455 7.833479 1.885204
N 3.070876 3.630222 1.856303
N 7.909810 3.632907 1.908479
Ru 5.450490 5.056615 3.385417
