25
Title                                   
C 7.785680 1.754966 1.909075
C 7.765756 4.286640 1.906182
C 7.778631 6.825315 1.909262
C 1.679540 0.725995 1.909586
C 0.651127 1.754343 1.909308
C 1.679993 7.860741 1.909700
C 1.333438 5.552267 1.907271
C 0.664033 4.293207 1.906602
C 1.344630 3.016465 1.906616
C 0.643942 6.824667 1.909429
C 4.218007 0.738972 1.907146
C 2.941636 1.419690 1.906947
C 4.211247 7.840826 1.907252
C 2.952426 7.171352 1.907514
C 6.749596 0.718947 1.909297
C 5.477001 1.408419 1.906839
C 6.750187 7.853660 1.909424
C 7.084988 5.563246 1.906283
C 7.096272 3.027473 1.906178
C 5.487862 7.160071 1.906616
C 2.755356 5.749524 1.905746
C 5.674393 2.830107 1.904478
N 2.734815 2.809561 1.903896
N 5.694968 5.770100 1.903593
Ti 4.215018 4.289459 1.899861
