32
Title                                   
C -0.001537 1.787901 5.564274
C 1.235118 2.497587 5.660136
C 1.235163 3.902166 5.916441
C 0.000135 5.972037 6.438828
C -0.005391 4.603177 6.052160
C -0.015263 10.420281 6.333060
C 1.235924 12.501852 5.848095
C 0.001110 14.633154 5.536557
C 1.235630 15.347847 5.486912
C 1.235332 16.776908 5.449735
C 0.002148 13.212649 5.709502
C 2.471846 1.787922 5.564281
C 3.707174 2.499746 5.642713
C 3.707179 3.907758 5.872048
C 2.471916 0.362180 5.462665
C 2.470350 5.972168 6.438718
C 3.707397 6.748264 6.556244
C 3.707774 8.214768 6.656449
C 2.475692 4.603273 6.052090
C 2.487416 10.420411 6.333680
C 3.707973 12.514845 5.812832
C 2.470262 14.633114 5.536543
C 3.707647 15.344862 5.480972
C 3.707341 16.775482 5.444041
C 2.469619 13.212635 5.709602
C 3.708090 11.116193 6.104685
C 1.236075 11.105327 6.186291
C -0.001377 0.362150 5.462643
C 2.537462 9.043011 6.741985
C 4.878457 9.042714 6.740669
N 1.235279 6.539841 6.768521
W 1.235391 8.185100 7.887927
