31
Title                                   
C 0.549498 0.764821 1.745559
C 9.182558 1.486107 1.762460
C 0.560137 7.889672 1.745020
C 9.197427 2.916138 1.777592
C 0.559002 5.039125 1.756083
C 9.211216 5.770153 1.794205
C 0.551106 3.615491 1.756278
C 9.202600 7.195248 1.781817
C 3.018082 0.755003 1.832508
C 1.776569 1.459253 1.784902
C 3.032535 7.871245 1.811763
C 1.768292 2.884381 1.796935
C 3.007159 5.015248 1.877016
C 1.782013 5.738531 1.779648
C 2.983110 3.567487 1.910363
C 1.796489 7.168572 1.764226
C 5.481482 0.778771 1.959555
C 4.230071 1.487806 1.953915
C 5.497372 7.875053 1.959680
C 4.225984 5.718638 1.978142
C 4.263865 7.138107 1.911706
C 7.946474 0.783145 1.809200
C 6.714978 1.516013 1.910027
C 7.961042 7.899363 1.829710
C 6.753398 2.935580 1.975109
C 7.996666 5.086592 1.906999
C 7.972142 3.638939 1.873607
C 6.749198 7.166354 1.952267
N 4.171939 2.877440 2.071646
N 6.808250 5.776646 2.069406
Zr 5.490721 4.327119 2.981954
