32
Title                                   
C 0.000992 1.782008 5.702006
C 1.235572 2.500277 5.687461
C 1.235583 3.933463 5.675544
C 0.045709 6.063125 5.727993
C -0.006229 4.645374 5.702633
C -0.022182 10.362941 6.454463
C 1.235444 12.474852 6.141438
C 0.001306 14.622476 5.895129
C 1.235567 15.339863 5.845432
C 1.235562 16.766737 5.762980
C 0.001389 13.198867 6.029472
C 2.470253 1.781940 5.701951
C 3.707661 2.500985 5.701988
C 3.707663 3.920407 5.714525
C 2.471693 0.353921 5.735228
C 2.425545 6.063050 5.728014
C 3.707456 8.160982 6.309928
C 2.477511 4.645290 5.702645
C 2.492989 10.362854 6.454602
C 3.707437 12.497479 6.091630
C 2.469748 14.622350 5.895091
C 3.707579 15.337246 5.839400
C 3.707564 16.764876 5.762326
C 2.469493 13.198753 6.029334
C 3.707462 11.086613 6.287126
C 1.235378 11.062219 6.383343
C -0.000579 0.353954 5.735249
C 2.571707 8.950825 6.651941
C 4.843231 8.950857 6.651881
N 1.235633 6.716793 5.671865
N 3.707623 6.798392 5.905321
Pt 1.235571 8.227556 7.873360
