32
Title                                   
C 0.555468 0.774191 1.705507
C 9.183710 1.487016 1.760753
C 0.555353 7.886343 1.675219
C 9.185512 2.906337 1.840360
C 0.554649 5.036247 1.741287
C 9.191948 5.732349 1.758669
C 0.555204 3.614755 1.811773
C 9.183931 7.167823 1.714920
C 3.015196 0.763638 1.734805
C 1.796987 1.486926 1.748139
C 3.028409 7.896602 1.734896
C 1.794687 2.905948 1.827943
C 3.013471 5.040660 1.949200
C 1.786895 5.732244 1.741855
C 1.796584 7.167861 1.699063
C 5.490741 0.759400 1.881655
C 4.249286 1.464061 1.845841
C 4.258722 2.875646 2.023304
C 4.244353 7.185303 1.940315
C 7.965977 0.763132 1.756482
C 6.732221 1.464188 1.861174
C 7.952518 7.896291 1.757448
C 6.722271 2.875764 2.038106
C 7.967162 5.041079 1.976537
C 6.736585 7.185092 1.962108
C 4.178407 5.798985 2.230518
C 5.488497 3.517258 2.334085
C 6.802896 5.799916 2.262280
N 5.490583 7.880131 1.940673
N 3.032620 3.611851 1.951898
N 7.948134 3.611998 1.974095
Ti 5.474787 5.082153 3.532591
