25
Title                                   
C 7.812044 1.720985 1.910003
C 7.746227 4.296643 1.905784
C 7.768624 6.830581 1.910209
C 1.686282 0.714606 1.910400
C 0.639823 1.761029 1.910262
C 1.645832 7.886778 1.910214
C 1.314927 5.603054 1.906686
C 0.651037 4.313410 1.906493
C 1.322394 3.041964 1.907825
C 0.619509 6.847624 1.910115
C 4.238302 0.726142 1.907143
C 2.966945 1.397286 1.908129
C 4.221389 7.821155 1.906724
C 2.924400 7.177258 1.906881
C 6.772800 0.694785 1.909763
C 5.528139 1.390319 1.905981
C 6.755446 7.843731 1.909963
C 7.072868 5.564562 1.906046
C 7.102417 2.999491 1.905716
C 5.489288 7.147670 1.906050
C 2.715298 2.790177 1.906125
N 2.678566 5.851546 1.903321
N 5.776786 2.753838 1.901687
N 5.717685 5.792566 1.902096
Cd 4.203510 4.278812 1.900483
