31
Title                                   
C -0.012074 1.808255 5.908536
C 1.217830 2.540498 5.928035
C 1.207757 3.981908 6.000371
C -0.051512 4.671522 6.087821
C 0.032252 10.315913 6.016971
C 1.257615 12.471307 5.927765
C 0.010557 14.628841 5.873988
C 1.243875 15.346246 5.872114
C 1.233951 16.780289 5.873695
C 0.019575 13.193571 5.894762
C 2.452524 1.807521 5.888665
C 3.688538 2.513280 5.905919
C 3.677239 3.942439 5.953264
C 2.464218 0.371660 5.872712
C 3.688006 6.692273 6.110678
C 3.726480 8.189674 6.092799
C 2.455963 4.683361 5.953602
C 2.508751 10.324978 6.068132
C 3.732080 12.477071 5.911780
C 2.483035 14.627256 5.875587
C 3.715759 15.346987 5.869118
C 3.705715 16.784394 5.870235
C 2.492558 13.192196 5.901397
C 3.741148 11.041233 5.974372
C 1.265253 11.039905 6.012251
C -0.003069 0.372135 5.881980
C 2.534639 8.913971 6.236143
C 4.935798 8.884337 6.104625
N 2.520614 6.057969 5.893310
N -0.115902 6.017937 6.337469
Rh 1.257323 7.539222 6.603102
