32
Title                                   
C 0.551186 0.792377 1.748282
C 9.189674 1.491518 1.781545
C 0.566502 7.907565 1.736734
C 9.175072 2.925319 1.840133
C 0.559713 5.047169 1.766497
C 9.203816 5.759955 1.800162
C 0.560397 3.618956 1.803097
C 9.207784 7.182392 1.772769
C 3.018419 0.755879 1.787703
C 1.797772 1.486762 1.776256
C 1.814597 2.915481 1.819114
C 3.017694 5.071363 1.917483
C 1.784254 5.769988 1.771611
C 3.061650 3.637839 1.919926
C 1.782925 7.189130 1.755163
C 5.494197 0.713138 1.889858
C 4.254581 1.433087 1.857659
C 5.480255 7.837218 1.961867
C 4.288374 2.855818 1.969839
C 4.204698 7.159101 1.953724
C 7.960371 0.759751 1.786365
C 6.717866 1.441751 1.855109
C 7.969512 7.892331 1.803941
C 6.687366 2.864468 1.979861
C 7.965143 5.075182 1.972934
C 7.923749 3.631849 1.958525
C 6.761555 7.147349 1.971368
N 4.142919 5.832459 2.121658
N 5.486002 3.482504 2.154530
N 6.828930 5.805140 2.180308
N 3.012015 7.898079 1.784507
Mn 5.464776 5.030272 3.514974
