32
Title                                   
C 0.554677 0.797972 1.817290
C 9.175915 1.503783 1.835260
C 0.554618 7.907574 1.801639
C 9.167052 2.926683 1.868268
C 0.554489 5.048374 1.814918
C 9.195857 5.746764 1.822411
C 0.554737 3.621243 1.852430
C 9.192428 7.180372 1.811883
C 3.014675 0.761439 1.812170
C 1.802803 1.503501 1.828672
C 3.019787 7.896263 1.806802
C 1.811670 2.926457 1.856293
C 3.048173 5.087633 1.861817
C 1.782591 5.746712 1.806939
C 1.786714 7.180307 1.800956
C 5.489539 0.712219 1.868836
C 4.261447 1.442914 1.847717
C 4.315446 2.869595 1.907134
C 4.219702 7.130319 1.859316
C 7.964307 0.761500 1.819482
C 6.718006 1.443207 1.857597
C 7.959216 7.895827 1.818793
C 6.663846 2.869927 1.921767
C 7.932780 5.087228 1.904036
C 6.759891 7.131751 1.888070
N 4.189106 5.789027 1.930172
N 5.488754 3.519674 2.022976
N 6.793309 5.791632 2.001796
N 5.489612 7.820997 1.873150
N 3.079936 3.635479 1.877649
N 7.899585 3.636293 1.904246
Ag 5.493093 5.038525 4.013015
