32
Title                                   
C 0.000462 1.785728 5.561488
C 1.235752 2.500673 5.646924
C 1.235728 3.914448 5.882517
C -0.012909 5.994149 6.396329
C -0.008751 4.612295 6.014862
C -0.013418 10.418783 6.360840
C 1.235273 12.492766 5.848653
C 0.000392 14.625644 5.543879
C 1.235475 15.340522 5.495807
C 1.235562 16.770909 5.459165
C 0.000725 13.203157 5.714045
C 2.471059 1.785631 5.561347
C 3.707670 2.495454 5.632854
C 3.707785 3.907034 5.848469
C 2.471528 0.357405 5.470840
C 2.484288 5.994060 6.396563
C 3.707676 6.747710 6.523650
C 3.707479 8.206650 6.679200
C 2.480333 4.612363 6.015026
C 2.484349 10.418724 6.361213
C 3.707329 12.504964 5.821574
C 2.470308 14.625638 5.544001
C 3.707544 15.338584 5.490895
C 3.707625 16.770649 5.454886
C 2.469749 13.203338 5.714085
C 3.707260 11.106131 6.126957
C 1.235262 11.097981 6.197990
C -0.000300 0.357487 5.471045
C 2.542790 9.047656 6.801713
C 4.872247 9.047504 6.800896
C 1.235717 6.588935 6.744308
Re 1.235342 8.174354 7.869280
