32
Title                                   
C 0.556439 0.782084 1.609560
C 9.190641 1.496391 1.629318
C 0.564520 7.890874 1.600769
C 9.184029 2.923763 1.717390
C 0.557324 5.054899 1.722908
C 0.554720 3.629592 1.746936
C 9.211212 7.175674 1.634621
C 3.020691 0.760413 1.717588
C 1.797057 1.487620 1.708730
C 1.804978 2.915466 1.841159
C 2.969362 5.052717 2.200169
C 1.780900 5.763546 1.816060
C 3.025346 3.601746 2.151079
C 1.802820 7.192198 1.689130
C 5.486510 0.729013 1.814377
C 5.480055 7.858956 1.958806
C 4.262496 2.806047 2.246059
C 4.189675 7.199774 2.127734
C 7.961009 0.758000 1.624009
C 6.713949 1.452700 1.740984
C 7.969718 7.892021 1.663390
C 6.726099 2.850941 2.041240
C 7.989035 5.085125 1.935245
C 7.945013 3.636822 1.909434
C 6.758780 7.182051 1.915299
C 4.039190 5.912488 2.586281
C 5.510101 3.344984 2.556738
N 6.900303 5.837237 2.197486
N 3.009190 7.912303 1.719198
N 4.236412 1.418332 1.860967
N 9.208557 5.756416 1.684020
Zn 5.527631 5.050997 3.346814
