31
Title                                   
C 0.549092 0.763663 1.626414
C 9.181052 1.485545 1.668762
C 0.560597 7.890719 1.626154
C 9.197266 2.914587 1.664164
C 0.556616 5.039271 1.596095
C 9.207794 5.769350 1.675388
C 0.553577 3.615073 1.596526
C 9.203271 7.193993 1.685060
C 3.013269 0.754384 1.819347
C 1.775756 1.460552 1.686335
C 3.028849 7.873375 1.802426
C 1.771835 2.885168 1.677241
C 3.002132 5.026617 1.875415
C 1.782282 5.739725 1.665014
C 2.983021 3.562114 1.900053
C 1.798204 7.168906 1.669316
C 5.483616 0.773242 2.097632
C 4.207744 1.491068 2.047470
C 5.495500 7.880814 2.098053
C 4.193623 5.729198 2.115231
C 4.245635 7.139696 2.014886
C 7.950156 0.781109 1.801089
C 6.733273 1.514703 2.012640
C 7.965796 7.900102 1.817737
C 6.785374 2.925379 2.111017
C 7.996575 5.092150 1.897204
C 7.977170 3.627686 1.872403
C 6.771375 7.163114 2.045963
N 4.134318 2.867091 2.179917
N 6.845475 5.786973 2.177350
Y 5.491130 4.326678 3.297001
