25
Title                                   
C 7.795334 1.754057 1.908908
C 7.771611 4.289925 1.906054
C 7.795296 6.825544 1.909173
C 1.678685 0.709140 1.909494
C 0.634483 1.754009 1.909212
C 1.678567 7.870408 1.909602
C 1.342630 5.544912 1.906965
C 0.657980 4.289960 1.906506
C 1.342599 3.034765 1.906793
C 0.634417 6.825527 1.909431
C 4.214669 0.732346 1.907069
C 2.959911 1.418021 1.907177
C 4.214623 7.847279 1.907189
C 2.959894 7.161682 1.907259
C 6.751169 0.709256 1.909103
C 5.469570 1.418035 1.906560
C 6.751218 7.870410 1.909153
C 7.086928 5.544950 1.906203
C 7.086975 3.034838 1.905978
C 5.469630 7.161659 1.906602
C 2.746326 2.820375 1.904971
C 2.746421 5.759275 1.905065
C 5.683288 2.820418 1.903900
C 5.683347 5.759331 1.904202
Ag 4.214969 4.289891 1.901529
