31
Title                                   
C 0.005612 1.814105 5.848171
C 1.237605 2.540617 5.878302
C 1.237010 3.985758 5.962586
C -0.005643 4.689290 6.006667
C 0.004567 10.306386 6.044204
C 1.237317 12.464471 5.887454
C 0.002570 14.623981 5.827315
C 1.238475 15.345321 5.820924
C 1.238722 16.782414 5.819537
C 0.001492 13.187593 5.856330
C 2.470092 1.814284 5.847628
C 3.709859 2.530061 5.862877
C 3.709354 3.960215 5.932108
C 2.472671 0.376092 5.822867
C 3.708545 6.718476 6.182302
C 3.708112 8.171844 6.257679
C 2.479769 4.688398 6.004429
C 2.468866 10.307670 6.041106
C 3.709581 12.465138 5.878788
C 2.474153 14.623892 5.827044
C 3.710494 15.346914 5.819884
C 3.710711 16.784993 5.817666
C 2.473735 13.187391 5.855822
C 3.709106 11.029316 5.961355
C 1.236599 11.035861 5.982538
C 0.004613 0.375927 5.823219
C 2.470870 8.894369 6.234614
C 0.002621 8.893034 6.240510
N 2.514166 6.060861 6.144942
N -0.040592 6.061409 6.151857
Nb 1.241363 7.492069 7.060474
