31
Title                                   
C -0.013526 1.805650 5.892195
C 1.216077 2.534711 5.911227
C 1.209581 3.972406 5.972259
C -0.027382 4.695576 6.022890
C 0.032944 10.307499 5.993705
C 1.249881 12.449599 5.907401
C 0.009358 14.611605 5.874658
C 1.238432 15.336347 5.873732
C 1.230785 16.776257 5.873739
C 0.016016 13.168248 5.888172
C 2.456800 1.810223 5.889439
C 3.694802 2.529162 5.900630
C 3.685973 3.967813 5.952251
C 2.463656 0.369700 5.874836
C 3.715537 6.759574 6.151532
C 3.747708 8.219787 6.173695
C 2.444565 4.695244 5.995886
C 2.483818 10.298685 5.999677
C 3.720908 12.457450 5.894304
C 2.471608 14.611640 5.874963
C 3.709984 15.330444 5.870461
C 3.702319 16.772583 5.870684
C 2.478705 13.168848 5.888380
C 3.727222 11.034188 5.941255
C -0.007087 0.366105 5.876226
C 2.485665 8.896875 6.153833
C 0.048698 8.905721 6.128125
C 2.480622 6.110230 6.094166
N -0.030231 6.075869 6.169582
N 1.256076 11.035745 5.952576
V 1.242900 7.484362 6.838722
