32
Title                                   
C 0.555056 0.795452 1.813179
C 9.178048 1.500995 1.829411
C 0.555025 7.902336 1.795654
C 9.172409 2.922766 1.859417
C 0.555042 5.045662 1.794877
C 9.195317 5.742887 1.805478
C 0.555089 3.618553 1.841908
C 9.191339 7.179772 1.804475
C 3.016459 0.763105 1.813059
C 1.801719 1.500426 1.826993
C 3.022282 7.894602 1.814507
C 1.807046 2.922417 1.855575
C 3.037090 5.075408 1.884098
C 1.784388 5.742703 1.800449
C 1.788397 7.179659 1.799439
C 5.489627 0.719269 1.886433
C 4.259863 1.446934 1.864235
C 4.301981 2.868159 1.933818
C 4.224305 7.142085 1.898404
C 7.963404 0.763354 1.815483
C 6.719834 1.446954 1.868258
C 7.957997 7.894874 1.819142
C 6.677934 2.868191 1.939439
C 7.943284 5.075641 1.892965
C 6.755932 7.142672 1.904513
N 4.186156 5.786793 2.020284
N 5.489645 3.519504 2.091197
N 6.794953 5.787526 2.032221
N 5.489960 7.825199 1.892794
N 3.075826 3.631780 1.888781
N 7.904589 3.631969 1.896791
Tc 5.483769 5.073544 3.730225
