32
Title                                   
C 0.560904 0.785128 1.713133
C 9.194257 1.499290 1.716508
C 0.582831 7.908485 1.682613
C 9.177996 2.937199 1.736951
C 0.569755 5.057762 1.746289
C 9.213795 5.773477 1.649776
C 0.563216 3.625580 1.765526
C 9.218258 7.196013 1.626906
C 3.030117 0.744994 1.846820
C 1.811377 1.476201 1.801551
C 1.800173 2.905508 1.877126
C 3.000510 5.030141 2.177508
C 1.806656 5.763593 1.863636
C 3.016170 3.595090 2.140246
C 1.809252 7.188963 1.789884
C 5.497312 0.728966 1.890106
C 5.499019 7.860360 1.895204
C 4.248448 2.827024 2.247403
C 4.247922 7.165121 2.115427
C 7.955760 0.777973 1.695891
C 6.708917 1.479864 1.814181
C 7.975446 7.909156 1.642390
C 6.714148 2.905030 2.012688
C 7.947090 5.103705 1.650680
C 7.932703 3.653074 1.794731
C 6.761938 7.149402 1.679167
C 4.127872 5.828749 2.517706
C 5.487074 3.441543 2.499301
N 6.786398 5.798144 1.591680
N 3.036432 7.898861 1.853932
N 4.248559 1.425258 1.971891
Pt 5.403454 4.971534 3.706646
