32
Title                                   
C 0.555430 0.775864 1.699033
C 9.183644 1.486581 1.763730
C 0.555354 7.886678 1.651047
C 9.185772 2.906592 1.846976
C 0.554683 5.037339 1.717725
C 9.194125 5.731415 1.724976
C 0.555204 3.612021 1.808903
C 9.184814 7.168823 1.684602
C 3.015845 0.763120 1.736966
C 1.797204 1.486314 1.750453
C 3.026721 7.896875 1.720203
C 1.794441 2.906032 1.834518
C 3.011052 5.040332 1.925681
C 1.784929 5.731249 1.708906
C 1.795558 7.168466 1.670384
C 5.490676 0.755750 1.900664
C 4.251485 1.461437 1.857925
C 4.262230 2.874047 2.030658
C 4.239161 7.180347 1.935892
C 7.965675 0.763155 1.758040
C 6.729831 1.461707 1.872725
C 7.954317 7.897290 1.741701
C 6.718175 2.874210 2.044394
C 7.969786 5.040765 1.951946
C 6.741463 7.180956 1.954893
C 4.171880 5.793564 2.216790
C 5.488315 3.523608 2.336902
C 6.809748 5.795114 2.243821
N 5.490190 7.874993 1.968295
N 3.029296 3.609585 1.967243
N 7.951022 3.609666 1.987746
Hf 5.475737 5.117295 3.699762
