32
Title                                   
C 0.555237 0.769202 1.625590
C 9.190826 1.482927 1.672551
C 0.555003 7.889020 1.636033
C 9.183636 2.909486 1.766301
C 0.555005 5.037012 1.743391
C 9.191316 5.749012 1.780996
C 0.555008 3.614727 1.750434
C 9.187662 7.175193 1.698302
C 3.012154 0.763696 1.685912
C 1.789104 1.482829 1.672531
C 3.025894 7.897215 1.711131
C 1.795740 2.909397 1.766051
C 3.009255 5.054774 2.015108
C 1.788130 5.748890 1.780484
C 3.027283 3.613207 1.964862
C 1.791702 7.175120 1.698242
C 5.489874 0.744923 1.834868
C 4.248757 1.448592 1.817055
C 4.248092 2.852010 2.040928
C 4.180693 5.842760 2.319443
C 5.489575 3.456200 2.380027
C 4.247397 7.204372 1.942010
C 7.967685 0.763788 1.685987
C 6.731128 1.448779 1.817363
C 7.953503 7.897334 1.711281
C 6.731509 2.852144 2.041480
C 7.970465 5.054874 2.016356
C 6.799256 5.843253 2.321369
C 7.952215 3.613384 1.965663
C 6.732013 7.204581 1.942677
N 5.489680 7.892784 1.906184
Ta 5.488968 5.019706 3.602892
