32
Title                                   
C 0.555035 0.792989 1.773232
C 9.179435 1.500713 1.804830
C 0.556479 7.897079 1.763501
C 9.177819 2.919187 1.858061
C 0.555852 5.043276 1.792596
C 9.195147 5.739903 1.823684
C 0.555355 3.617788 1.838409
C 9.191594 7.177668 1.800534
C 3.016390 0.761814 1.766770
C 1.800788 1.498114 1.786106
C 3.027124 7.894435 1.767651
C 1.800621 2.916496 1.835868
C 3.030786 5.062574 1.863803
C 1.787279 5.738586 1.776571
C 1.791384 7.175484 1.760945
C 5.490309 0.731071 1.913728
C 4.255997 1.449494 1.862865
C 4.281888 2.859217 1.970926
C 4.230171 7.153416 1.863332
C 7.964437 0.766277 1.794347
C 6.724305 1.453107 1.886617
C 7.957399 7.899109 1.810577
C 6.696015 2.864341 2.007154
C 7.955779 5.064042 1.958158
C 6.756440 7.161535 1.925681
N 4.190418 5.787322 2.007009
N 5.482885 3.488912 2.261199
N 6.809764 5.804505 2.157585
N 5.492665 7.829160 1.915343
N 3.075572 3.630170 1.888493
N 7.903403 3.634721 1.933711
Sc 5.445228 5.098685 3.544216
