25
Title                                   
C 7.791698 1.763287 1.908981
C 7.773714 4.289959 1.906191
C 7.791859 6.816463 1.909304
C 1.688270 0.712800 1.909549
C 0.637884 1.763075 1.909146
C 1.688374 7.866528 1.909720
C 1.349610 5.530961 1.906911
C 0.656064 4.289874 1.906592
C 1.349448 3.048669 1.906594
C 0.638026 6.816319 1.909462
C 4.214603 0.730944 1.907213
C 2.973644 1.424399 1.907098
C 4.214666 7.848702 1.907323
C 2.973754 7.155162 1.907280
C 6.741343 0.713048 1.909249
C 5.455654 1.424596 1.906478
C 6.741529 7.866807 1.909350
C 7.080198 5.531057 1.906252
C 7.080125 3.048858 1.905939
C 5.455816 7.155312 1.906641
C 2.750738 2.825523 1.904657
C 2.750886 5.754012 1.904662
C 5.678892 2.825674 1.903713
C 5.678966 5.754223 1.904029
Zn 4.214778 4.289758 1.901767
