32
Title                                   
C -0.000692 1.766689 5.501047
C 1.235427 2.478006 5.533880
C 1.235460 3.903779 5.668113
C 0.034158 6.020629 6.035704
C -0.001151 4.608271 5.768738
C -0.025716 10.405693 6.543172
C 1.235660 12.490143 6.093456
C 0.002580 14.619473 5.726910
C 1.235477 15.331879 5.647683
C 1.235428 16.754982 5.530644
C 0.004573 13.206825 5.937199
C 2.471521 1.766664 5.501001
C 3.707446 2.480626 5.536711
C 3.707471 3.903501 5.672852
C 2.472098 0.336966 5.499225
C 2.436807 6.020642 6.035804
C 3.707583 6.745682 6.216103
C 3.707627 8.148346 6.540554
C 2.472050 4.608336 5.768753
C 2.497064 10.405784 6.543287
C 3.707693 12.517427 6.041691
C 2.468458 14.619444 5.726824
C 3.707532 15.325571 5.639195
C 3.707452 16.751269 5.527351
C 2.466723 13.206840 5.937162
C 3.707747 11.133448 6.343295
C 1.235686 11.090011 6.414486
C -0.001300 0.336937 5.499300
C 2.616171 9.018428 6.806908
C 4.799134 9.018350 6.806947
N 1.235471 6.656604 6.169102
Au 1.235693 8.370079 8.238204
