25
Title                                   
C 7.777014 1.757423 1.909339
C 7.752463 4.290055 1.906235
C 7.777094 6.822360 1.909495
C 1.682351 0.727331 1.909869
C 0.652524 1.757187 1.909516
C 1.682510 7.851852 1.909994
C 1.361354 5.554323 1.906781
C 0.677399 4.289811 1.906626
C 1.361192 3.025090 1.906503
C 0.652637 6.822115 1.909656
C 4.214546 0.752313 1.907129
C 2.950081 1.436152 1.907100
C 4.214568 7.827512 1.907263
C 2.950320 7.143216 1.907269
C 6.747015 0.727745 1.909564
C 5.479071 1.436539 1.906442
C 6.747137 7.852263 1.909635
C 7.068431 5.554626 1.906339
C 7.068483 3.025421 1.906009
C 5.479132 7.143515 1.906656
N 2.740794 2.815476 1.903794
N 2.740985 5.763825 1.903983
N 5.689026 2.815814 1.903207
N 5.688983 5.764137 1.903524
Pd 4.215429 4.289910 1.902171
