31
Title                                   
C 0.007156 1.791689 5.949040
C 1.237509 2.517212 5.962601
C 1.237618 3.960553 5.996453
C -0.015341 4.645545 6.014960
C -0.002556 10.344592 6.032465
C 1.237590 12.481575 5.982922
C 0.002081 14.632557 5.943287
C 1.237569 15.348887 5.935117
C 1.237550 16.774126 5.930084
C 0.001355 13.206107 5.968187
C 2.467928 1.791785 5.948816
C 3.709574 2.493457 5.960829
C 3.709557 3.913907 5.994085
C 2.470896 0.362370 5.932509
C 3.709632 6.687289 6.058506
C 3.709768 8.206626 6.064644
C 2.490488 4.645592 6.013634
C 2.477940 10.344490 6.031359
C 3.709702 12.496345 5.983384
C 2.473143 14.632608 5.943218
C 3.709721 15.348368 5.933714
C 3.709679 16.779208 5.928309
C 2.473964 13.205995 5.967998
C 3.709735 11.068013 6.016727
C 1.237679 11.063800 6.014932
C 0.004200 0.362384 5.932617
C 2.537672 8.941956 6.053896
C 4.881703 8.941983 6.056413
N 2.563647 6.014780 6.046706
N -0.088311 6.014705 6.051093
Au 1.237647 7.539644 6.052693
