32
Title                                   
C 0.554409 0.783023 1.705254
C 9.184770 1.496009 1.757592
C 0.563236 7.898069 1.692369
C 9.167063 2.923612 1.823721
C 0.551117 5.041259 1.756938
C 9.197859 5.758793 1.777474
C 0.559923 3.616431 1.809282
C 9.199033 7.192294 1.731667
C 3.015540 0.754120 1.732400
C 1.797864 1.487783 1.738289
C 3.034060 7.885066 1.766784
C 1.794828 2.903370 1.827980
C 3.017963 5.037114 1.991528
C 1.793563 5.735135 1.780063
C 1.801465 7.167546 1.734514
C 5.488604 0.733415 1.912146
C 4.251306 1.440335 1.846605
C 4.260006 2.855240 1.984390
C 4.241598 7.164449 1.990621
C 7.961783 0.774105 1.770565
C 6.713062 1.455534 1.882476
C 7.964736 7.910197 1.767724
C 6.683097 2.865050 2.001530
C 7.960046 5.085724 1.950819
C 7.908003 3.640855 1.938675
C 6.748819 7.191510 1.946298
C 4.161077 5.801262 2.356037
N 5.445432 3.474315 2.237802
N 6.817589 5.852293 2.182006
N 5.504683 7.864572 1.970174
N 3.045700 3.601040 1.951392
Ru 5.545527 5.021672 3.398385
