32
Title                                   
C 0.558615 0.774910 1.635753
C 9.189488 1.479393 1.703094
C 0.559709 7.892704 1.623305
C 9.185333 2.908282 1.796505
C 0.554726 5.038649 1.707170
C 9.198592 5.751788 1.773234
C 0.562951 3.618829 1.754555
C 9.191462 7.180386 1.692567
C 3.019453 0.759889 1.692556
C 1.800711 1.489220 1.682665
C 3.031599 7.892494 1.709799
C 1.803915 2.912791 1.777487
C 3.003831 5.042786 1.963038
C 1.791533 5.742038 1.711594
C 1.796564 7.169811 1.661253
C 5.484460 0.741731 1.882986
C 4.248652 1.459852 1.830671
C 4.246139 2.868719 2.035622
C 4.237437 7.184532 1.969019
C 7.965454 0.764273 1.729569
C 6.722981 1.449641 1.880088
C 7.952468 7.895739 1.741407
C 6.718400 2.852998 2.101890
C 7.990055 5.055842 2.057041
C 7.955245 3.611807 2.012177
C 6.736833 7.196043 1.994652
C 4.143609 5.813464 2.365733
C 5.464726 3.473049 2.434832
C 6.835159 5.841365 2.398410
N 5.480300 7.881141 1.962028
N 3.016770 3.615119 1.945331
Os 5.486594 5.051903 3.487468
