32
Title                                   
C 0.000050 1.782391 5.869675
C 1.237522 2.504191 5.863491
C 1.249054 3.939015 5.851346
C 0.071324 6.083530 5.858144
C 0.010562 4.653238 5.857166
C -0.081246 10.304977 5.981030
C 1.187652 12.442792 5.979901
C -0.030592 14.608812 5.889431
C 1.206491 15.332715 5.893219
C 1.218327 16.761608 5.881077
C -0.041815 13.178361 5.911692
C 2.468514 1.783360 5.871194
C 3.710760 2.500911 5.870008
C 3.723117 3.925586 5.867992
C 2.457769 0.352437 5.878462
C 2.456514 6.072184 5.866438
C 3.710049 8.263603 6.107994
C 2.496575 4.647114 5.858723
C 2.433941 10.317783 6.230385
C 3.658083 12.475225 5.940302
C 2.436822 14.611020 5.908670
C 3.679126 15.328457 5.886796
C 3.690562 16.760902 5.878845
C 2.423705 13.181904 5.952737
C 3.648005 11.050934 6.009121
C 1.179824 11.014049 6.087670
C -0.013683 0.352306 5.875290
C 2.580032 8.951028 6.626319
N 4.806915 8.962751 5.805038
N 1.270750 6.718654 5.828422
N 3.736312 6.813063 5.937080
Au 1.676312 8.372421 8.327643
