25
Title                                   
C 7.783886 1.779201 1.950998
C 7.738988 4.297336 1.916419
C 7.792367 6.834074 1.928347
C 1.699236 0.717883 1.932295
C 0.642795 1.774334 1.931825
C 1.704268 7.858982 1.951554
C 1.333996 5.540183 1.939181
C 0.636576 4.294343 1.919863
C 1.339751 3.046196 1.901873
C 0.652258 6.812400 1.952611
C 4.218634 0.711644 1.921398
C 2.970765 1.415007 1.902843
C 4.221940 7.813946 1.918308
C 2.972188 7.139244 1.936753
C 6.737054 0.727162 1.952945
C 5.464671 1.408730 1.939895
C 6.759018 7.867153 1.928824
C 7.070779 5.575291 1.894427
C 7.064262 3.047243 1.935405
C 5.500027 7.145514 1.895244
C 2.790835 2.865838 1.834017
C 2.765784 5.698228 1.891639
C 5.623168 2.840254 1.891221
N 5.703696 5.778444 1.842975
Rh 4.183596 4.257384 1.663240
