25
Title                                   
C 7.776012 1.758753 1.909195
C 7.755149 4.290072 1.906247
C 7.776089 6.821095 1.909420
C 1.683808 0.728391 1.909807
C 0.653559 1.758498 1.909471
C 1.683936 7.850918 1.909919
C 1.348665 5.559671 1.906846
C 0.674746 4.289838 1.906573
C 1.348462 3.019827 1.906667
C 0.653718 6.820851 1.909609
C 4.214581 0.749682 1.907068
C 2.944913 1.423466 1.907024
C 4.214607 7.830236 1.907235
C 2.945126 7.156055 1.907181
C 6.745651 0.728777 1.909513
C 5.484327 1.423766 1.906492
C 6.745757 7.851218 1.909614
C 7.081158 5.559918 1.906381
C 7.081217 3.020161 1.905958
C 5.484380 7.156184 1.906743
N 2.739495 2.814205 1.903940
N 2.739735 5.765154 1.904151
N 5.690292 2.814463 1.903360
N 5.690208 5.765358 1.903681
Tc 4.214949 4.289453 1.902003
