32
Title                                   
C 0.555778 0.770062 1.651680
C 9.190969 1.482323 1.676314
C 0.566916 7.893071 1.663366
C 9.188593 2.910861 1.724464
C 0.564549 5.045424 1.685725
C 9.202822 5.750647 1.755388
C 0.560833 3.614609 1.690864
C 9.201607 7.178978 1.722495
C 3.018609 0.756028 1.746740
C 1.799312 1.473788 1.690718
C 1.797343 2.899732 1.728543
C 3.007892 5.032856 1.984584
C 1.801431 5.756646 1.737713
C 3.024976 3.599131 1.936874
C 1.800097 7.185301 1.710032
C 5.482521 0.754395 1.858048
C 5.472038 7.894626 1.994659
C 4.242700 2.842230 2.064864
C 4.217997 7.195129 2.055149
C 7.956014 0.764417 1.716022
C 6.712548 1.470078 1.812926
C 7.961458 7.898904 1.778718
C 6.728336 2.878009 2.012393
C 7.986844 5.050801 1.998168
C 7.955540 3.615443 1.924202
C 6.739006 7.200879 2.029477
C 4.132361 5.822999 2.362557
C 5.476468 3.462400 2.379543
C 6.836506 5.815537 2.361197
N 3.025002 7.909158 1.778261
N 4.234254 1.445272 1.850637
Nb 5.492445 5.041457 3.631177
