31
Title                                   
C 0.554894 0.759766 1.778197
C 9.189857 1.471588 1.802778
C 0.554862 7.894319 1.777591
C 9.199441 2.895885 1.802531
C 0.555161 5.038626 1.779660
C 9.199370 5.758152 1.802126
C 0.555076 3.615680 1.780065
C 9.189752 7.182522 1.802210
C 3.023093 0.767691 1.861537
C 1.789462 1.471684 1.804709
C 3.022959 7.886860 1.860811
C 1.780027 2.895880 1.804528
C 3.005406 5.052597 1.878657
C 1.780290 5.758219 1.803434
C 3.005008 3.601173 1.879582
C 1.789493 7.182555 1.803615
C 5.489588 0.757251 1.970012
C 4.254113 1.499981 1.947443
C 5.489510 7.897054 1.969343
C 4.221643 2.905645 2.000308
C 4.221741 5.749024 1.998680
C 4.254150 7.154640 1.946083
C 7.956253 0.767487 1.859672
C 6.724926 1.499550 1.946705
C 7.956282 7.886875 1.859525
C 6.757680 2.905060 2.000295
C 7.974082 5.052871 1.878257
C 6.757911 5.749551 1.999942
C 7.974129 3.601211 1.878361
C 6.725170 7.155051 1.946205
Mn 5.490044 4.327596 2.596440
