25
Title                                   
C 7.788005 1.766046 1.908862
C 7.769319 4.289875 1.906129
C 7.788198 6.813399 1.909101
C 1.691365 0.716395 1.909418
C 0.641562 1.765872 1.909028
C 1.691441 7.862855 1.909590
C 1.361445 5.535637 1.907004
C 0.660303 4.289799 1.906529
C 1.361399 3.043784 1.906687
C 0.641758 6.813298 1.909342
C 4.214677 0.735239 1.907141
C 2.968893 1.436535 1.907210
C 4.214687 7.844276 1.907250
C 2.968946 7.142947 1.907400
C 6.738428 0.716586 1.909113
C 5.460545 1.436604 1.906606
C 6.738633 7.863013 1.909237
C 7.068156 5.535781 1.906257
C 7.067991 3.043974 1.906201
C 5.460744 7.143252 1.906687
C 2.795289 2.870562 1.904701
C 2.795425 5.709180 1.905044
C 5.634068 2.870605 1.904094
C 5.634144 5.709422 1.904274
Co 4.215117 4.291074 1.901195
