32
Title                                   
C 0.009161 1.786616 5.730345
C 1.249505 2.500941 5.783250
C 1.263167 3.923018 5.927114
C 0.053108 6.053097 6.224773
C 0.030446 4.634176 6.000974
C -0.082062 10.346452 6.066118
C 1.188847 12.473523 5.903691
C -0.026531 14.624560 5.721984
C 1.211647 15.343926 5.701152
C 1.226386 16.771231 5.677248
C -0.041041 13.197421 5.807827
C 2.482187 1.787299 5.731857
C 3.722815 2.501317 5.768747
C 3.737785 3.927328 5.894105
C 2.467876 0.357709 5.682385
C 2.511294 6.041275 6.234922
C 3.756037 6.799533 6.269160
C 3.732656 8.281571 6.325866
C 2.507138 4.630366 6.001821
C 2.420607 10.367123 6.272017
C 3.659283 12.497748 5.880477
C 2.442101 14.627276 5.737895
C 3.684792 15.339225 5.697582
C 3.699133 16.770736 5.673132
C 2.426353 13.202682 5.842291
C 3.644819 11.081151 6.049039
C 1.175693 11.055764 6.084334
C -0.005517 0.357464 5.679582
C 2.581633 9.017684 6.713628
N 4.860850 8.987281 6.038655
N 1.289756 6.659198 6.434065
Pt 1.377405 8.102636 7.895264
