31
Title                                   
C -0.004444 1.800941 5.900432
C 1.231588 2.524370 5.913932
C 1.229922 3.952278 5.976789
C 0.011227 4.707225 6.057425
C 0.013020 10.289249 6.021277
C 1.231256 12.445313 5.906891
C 0.001093 14.608657 5.876930
C 1.233403 15.333307 5.873388
C 1.233812 16.772621 5.875008
C -0.001239 13.165117 5.892705
C 2.472196 1.805561 5.888469
C 3.708307 2.531044 5.905307
C 3.709904 3.976676 5.958407
C 2.470599 0.365097 5.874696
C 3.700642 6.789811 6.132212
C 3.700887 8.241939 6.101188
C 2.456046 4.677650 5.976388
C 2.450648 10.313811 5.939476
C 3.707017 12.451500 5.890324
C 2.465060 14.606654 5.870308
C 3.704846 15.325822 5.869912
C 3.704798 16.768215 5.872357
C 2.467312 13.162005 5.880242
C 3.706941 11.019883 5.924184
C -0.003922 0.363199 5.881010
C 2.465083 8.907038 6.028155
C 0.007058 8.883186 6.217169
C 2.484689 6.096211 6.088097
C -0.009665 6.127599 6.267878
N 1.229866 11.038079 5.955129
Ru 1.364464 7.508091 6.885513
