32
Title                                   
C 0.010721 1.783309 5.892289
C 1.249100 2.502804 5.936546
C 1.251614 3.926674 6.042771
C 0.038401 6.032201 6.241469
C 0.009700 4.638451 6.062552
C -0.027603 10.270952 5.842187
C 1.239151 12.445181 5.873813
C 0.011557 14.609319 5.832223
C 1.245843 15.330571 5.839040
C 1.246909 16.763029 5.849562
C 0.013683 13.178549 5.840805
C 2.483575 1.781856 5.897807
C 3.717432 2.504751 5.910810
C 3.717140 3.928766 5.980092
C 2.483208 0.351323 5.860344
C 2.460216 6.064118 6.279408
C 3.761801 8.221157 6.074066
C 2.488042 4.654520 6.089491
C 2.499914 10.328581 6.059994
C 3.717177 12.467990 5.875168
C 2.477378 14.607811 5.847767
C 3.715970 15.326673 5.837028
C 3.718193 16.758820 5.844422
C 2.472217 13.172271 5.875554
C 3.711335 11.053505 5.930791
C 1.240997 10.987692 5.902283
C 0.010261 0.353190 5.855761
C 2.633904 8.936537 6.439092
N 4.879792 8.858543 5.464384
N 1.235761 6.700291 6.525229
N 3.737452 6.776334 6.226396
Zr 0.806491 8.731552 7.422154
