32
Title                                   
C 0.550389 0.781696 1.714874
C 9.176567 1.498832 1.767837
C 0.559288 7.890706 1.681512
C 9.172398 2.920237 1.837996
C 0.552934 5.037221 1.726526
C 9.197051 5.743522 1.746538
C 0.546765 3.613404 1.806427
C 9.195575 7.179457 1.721745
C 3.012757 0.752914 1.748331
C 1.792374 1.481574 1.759197
C 3.034096 7.883651 1.741018
C 1.783166 2.900378 1.835513
C 3.008542 5.027341 1.945631
C 1.784327 5.726914 1.734072
C 1.799941 7.163485 1.698403
C 5.491500 0.745517 1.897278
C 4.245292 1.445477 1.868411
C 4.244161 2.860408 2.048719
C 4.248166 7.160063 1.932246
C 7.961326 0.772953 1.762506
C 6.724292 1.470231 1.871483
C 7.963039 7.907271 1.768367
C 6.698150 2.884881 2.041217
C 7.970640 5.069848 1.944610
C 6.764833 7.182972 1.946586
C 4.173849 5.769489 2.214391
C 5.459531 3.513897 2.352714
N 6.848580 5.825512 2.228315
N 5.503505 7.848972 1.934128
N 3.018890 3.596327 1.965307
N 7.925121 3.639072 1.957110
Ti 5.526718 5.116969 3.514492
