31
Title                                   
C -0.020156 1.799827 5.882585
C 1.205151 2.532285 5.906553
C 1.190805 3.973815 5.986203
C -0.050830 4.696876 6.061253
C 0.039770 10.300269 6.031824
C 1.263382 12.448871 5.900868
C 0.014284 14.607043 5.854337
C 1.241211 15.333407 5.851840
C 1.228824 16.773792 5.853680
C 0.027708 13.164532 5.873736
C 2.447705 1.807629 5.868323
C 3.687901 2.524512 5.882305
C 3.674898 3.956409 5.933343
C 2.460197 0.367798 5.851620
C 3.676924 6.781705 6.123172
C 3.729042 8.246021 6.158874
C 2.433949 4.684701 5.957658
C 2.512674 10.305177 5.992102
C 3.728185 12.458053 5.874291
C 2.474171 14.610958 5.850218
C 3.712759 15.328774 5.846629
C 3.700643 16.767770 5.847894
C 2.485248 13.168254 5.868280
C 3.744158 11.044055 5.926464
C -0.009277 0.362408 5.858954
C 0.016938 8.918110 6.228764
C 2.468537 6.095598 5.980291
N 2.515791 8.950421 6.106380
N -0.070770 6.073799 6.288582
N 1.279585 11.013356 5.972838
Hf 1.333009 7.461924 7.081338
