32
Title                                   
C 0.551568 0.771282 1.616420
C 9.188523 1.482306 1.641054
C 0.562340 7.895656 1.645898
C 9.187365 2.910287 1.696232
C 0.563574 5.040689 1.670232
C 9.203876 5.749631 1.746709
C 0.561441 3.616638 1.663337
C 9.201230 7.178691 1.703040
C 3.011062 0.752058 1.726091
C 1.789031 1.468781 1.654954
C 1.801499 2.901206 1.697113
C 2.988953 5.041616 2.005014
C 1.797004 5.756752 1.746621
C 3.020978 3.607842 1.927632
C 1.795157 7.187083 1.717092
C 5.488673 0.747042 1.840022
C 4.244064 1.451123 1.838904
C 5.475963 7.886573 1.964258
C 4.235799 2.853755 2.042816
C 4.110096 5.830887 2.436462
C 5.485991 3.464293 2.426055
C 4.205464 7.208828 2.050902
C 7.962342 0.764502 1.689577
C 6.727932 1.464638 1.812943
C 7.961499 7.893068 1.750135
C 6.736159 2.863891 2.031220
C 8.001289 5.044565 1.995518
C 6.854679 5.821490 2.381252
C 7.961198 3.612632 1.923445
C 6.742542 7.196885 2.001745
N 3.011717 7.896958 1.788425
Re 5.504755 5.049543 3.482383
