32
Title                                   
C 0.554683 0.779087 1.717968
C 9.183407 1.488528 1.769516
C 0.554701 7.889211 1.684876
C 9.182664 2.907295 1.874967
C 0.555159 5.042280 1.802776
C 9.192017 5.737450 1.785271
C 0.554876 3.613022 1.869361
C 9.184677 7.169211 1.714604
C 3.014317 0.760442 1.738383
C 1.795261 1.488540 1.772022
C 3.026234 7.898392 1.730523
C 1.796176 2.907375 1.880418
C 3.025026 5.039068 1.993142
C 1.788014 5.737685 1.795271
C 1.794144 7.169296 1.720547
C 5.489315 0.753569 1.856620
C 4.250036 1.460147 1.843156
C 4.263607 2.865562 2.055224
C 4.249131 7.188226 1.914049
C 7.964477 0.760451 1.736112
C 6.728963 1.459926 1.841225
C 7.952595 7.898666 1.725341
C 6.715769 2.865353 2.050730
C 7.954210 5.038439 1.978021
C 6.729294 7.188136 1.905722
C 4.178230 5.820567 2.228612
C 5.490399 3.473775 2.387508
C 6.801806 5.819549 2.214034
N 5.489412 7.890267 1.894516
N 3.029280 3.608208 2.006091
N 7.949945 3.608005 1.995877
Ni 5.495941 5.085464 3.231017
