32
Title                                   
C 0.554268 0.787851 1.741352
C 9.189769 1.493672 1.775083
C 0.567557 7.905131 1.716114
C 9.175750 2.926969 1.850648
C 0.562482 5.050296 1.764008
C 9.206548 5.759610 1.805734
C 0.559214 3.618596 1.808505
C 9.208805 7.183699 1.754388
C 3.018902 0.757027 1.795137
C 1.802692 1.488111 1.789865
C 1.812113 2.913564 1.831125
C 3.022096 5.061444 1.915218
C 1.788866 5.767514 1.762189
C 3.066803 3.616260 1.946426
C 1.786209 7.189724 1.736318
C 5.490734 0.713611 1.873723
C 5.476929 7.851570 1.936086
C 4.277670 2.827503 2.059840
C 4.207554 7.164648 1.944490
C 7.959106 0.764456 1.758568
C 6.710608 1.444762 1.845713
C 7.974945 7.899254 1.777441
C 6.697792 2.850056 2.055314
C 7.971891 5.081314 2.016801
C 7.914571 3.629686 2.005223
C 6.767137 7.172347 1.967836
N 4.131731 5.845158 2.079212
N 5.467238 3.392148 2.345375
N 6.855380 5.841340 2.235006
N 3.013948 7.915421 1.774562
N 4.237673 1.420396 1.866368
Ni 5.456778 5.078050 3.179832
