31
Title                                   
C 0.550802 0.760652 1.809846
C 9.187613 1.473391 1.809815
C 0.560084 7.893698 1.810821
C 9.208001 2.903731 1.788149
C 0.555592 5.036525 1.771630
C 9.210820 5.767574 1.791723
C 0.557215 3.617993 1.771893
C 9.200689 7.189224 1.814778
C 3.017145 0.773394 1.921069
C 1.779027 1.465524 1.846270
C 3.023994 7.887180 1.922897
C 1.769941 2.887271 1.830901
C 2.981481 5.033140 1.932229
C 1.772776 5.750465 1.832706
C 2.974628 3.582381 1.927836
C 1.792104 7.180904 1.847195
C 5.490863 0.775528 1.998583
C 4.234455 1.521435 1.994714
C 5.489788 7.878574 2.004524
C 4.201455 5.732030 2.040902
C 4.244345 7.145271 2.003344
C 7.954183 0.767555 1.870229
C 6.734036 1.511035 1.944571
C 7.961114 7.880470 1.874908
C 6.776255 2.925121 1.948861
C 8.004236 5.071628 1.854662
C 7.997445 3.621708 1.847621
C 6.744489 7.130752 1.955111
N 4.176899 2.910282 2.024128
N 6.801548 5.741329 1.960939
Fe 5.488350 4.326279 2.066447
