31
Title                                   
C 0.013358 1.808961 5.930433
C 1.242470 2.545247 5.953074
C 1.241183 4.002670 6.025077
C 0.002536 4.713441 6.124145
C -0.037158 10.281723 6.105169
C 1.222787 12.428788 5.923688
C 0.003159 14.604778 5.880292
C 1.235373 15.329402 5.871042
C 1.240384 16.774074 5.877244
C -0.000926 13.156126 5.907328
C 2.478873 1.817703 5.911145
C 3.724954 2.527902 5.936329
C 3.734180 3.967212 5.993938
C 2.475666 0.370536 5.880961
C 3.702972 6.768150 6.105283
C 3.656107 8.247938 6.115050
C 2.501745 4.675235 5.980052
C 2.465017 10.313251 5.883373
C 3.701962 12.455814 5.901195
C 2.462261 14.601118 5.867662
C 3.705488 15.322374 5.868146
C 3.710831 16.770176 5.874481
C 2.456928 13.149481 5.885398
C 3.698789 11.030036 5.942554
C 0.006734 0.364418 5.891834
N 2.511383 8.949921 5.761586
N 4.846650 8.923423 6.445084
N 2.553034 6.051575 5.971515
N -0.058072 6.120111 6.387968
N 1.213091 10.972420 5.977989
Re 1.374735 7.514144 6.522166
