31
Title                                   
C -0.005454 1.795454 5.856782
C 1.223213 2.526962 5.904954
C 1.219535 3.959083 6.007371
C -0.029631 4.680539 5.984903
C 0.028501 10.320650 5.910656
C 1.257967 12.453335 5.891020
C 0.017848 14.616948 5.831077
C 1.245542 15.339513 5.837671
C 1.238739 16.773409 5.836110
C 0.023939 13.177321 5.842044
C 2.462567 1.798757 5.878268
C 3.701062 2.508138 5.884157
C 3.691415 3.939647 5.960256
C 2.470697 0.363311 5.845222
C 3.704607 6.729512 6.169566
C 3.734914 8.250266 6.144697
C 2.465326 4.662959 6.111807
C 2.507044 10.330275 6.092254
C 3.728037 12.478353 5.858993
C 2.478037 14.617637 5.847270
C 3.717516 15.331562 5.831222
C 3.710397 16.770790 5.831215
C 2.486168 13.180066 5.873258
C 3.734671 11.058837 5.910124
C 0.001551 0.360648 5.832544
C 2.519325 8.962637 6.417612
C 0.008360 8.919153 5.887164
C 2.505490 6.056371 6.383939
N -0.057477 6.056811 5.988140
N 1.265864 11.050621 5.973661
Sc 1.086648 7.488583 7.077244
