32
Title                                   
C 0.556452 0.793572 1.821786
C 9.181511 1.495444 1.810452
C 0.559557 7.910870 1.825194
C 9.162763 2.929511 1.800219
C 0.550027 5.046567 1.817180
C 9.191579 5.760608 1.807033
C 0.563318 3.628034 1.810933
C 9.196739 7.188102 1.815798
C 3.017158 0.753356 1.824835
C 1.807170 1.508876 1.822453
C 3.021017 7.889119 1.827799
C 1.823392 2.932332 1.816529
C 3.054676 5.086787 1.815065
C 1.785573 5.752186 1.827633
C 1.788997 7.174160 1.830012
C 5.482432 0.691267 1.805799
C 4.258627 1.429386 1.814295
C 4.325012 2.868724 1.800563
C 4.220500 7.109499 1.810772
C 7.961156 0.760332 1.809519
C 6.703310 1.430043 1.800769
C 7.962756 7.898860 1.811051
C 6.650215 2.865077 1.783960
C 7.924433 5.088550 1.781953
C 7.901466 3.636380 1.781912
C 6.760130 7.114432 1.791261
N 4.195220 5.779757 1.796666
N 5.463488 3.517969 1.772106
N 6.769121 5.803843 1.761688
N 5.480807 7.812440 1.799656
N 3.072595 3.643498 1.809897
Au 5.542565 5.111608 5.708710
