32
Title                                   
C 0.569999 0.779376 1.773164
C 9.197062 1.495243 1.767430
C 0.585744 7.895983 1.772187
C 9.168810 2.930327 1.742700
C 0.571620 5.038826 1.755281
C 9.209795 5.758148 1.732553
C 0.571959 3.615469 1.782023
C 9.217497 7.186987 1.758746
C 3.036046 0.730596 1.853534
C 1.819912 1.481320 1.813782
C 3.058153 7.862306 1.874048
C 1.819416 2.901704 1.853419
C 3.051026 5.023958 2.085503
C 1.821795 5.732477 1.832181
C 1.819347 7.156132 1.824874
C 5.507021 0.711320 1.918477
C 4.270937 1.421758 1.906575
C 4.314439 2.852247 1.870499
C 4.276233 7.139759 2.119315
C 7.975715 0.771508 1.809809
C 6.718708 1.450631 1.826931
C 7.986062 7.908281 1.809955
C 6.648904 2.883087 1.736261
C 7.929949 5.097866 1.710061
C 7.902431 3.646700 1.704350
C 6.779802 7.141693 1.852173
C 4.175002 5.783685 2.525339
N 5.442182 3.521523 1.740059
N 6.772662 5.828549 1.752958
N 5.522011 7.844474 2.017883
N 3.061163 3.601482 1.973909
Au 5.132360 5.217773 4.217522
