32
Title                                   
C 0.554445 0.783679 1.717073
C 9.194654 1.473754 1.737140
C 0.557388 7.902422 1.719953
C 9.192634 2.903037 1.793482
C 0.561927 5.045164 1.759898
C 9.197760 5.746240 1.803095
C 0.573320 3.616805 1.781930
C 9.191825 7.169681 1.765198
C 3.013663 0.771283 1.777022
C 1.797071 1.493739 1.756902
C 1.825435 2.924108 1.811232
C 3.010694 5.087376 1.971449
C 1.782569 5.775915 1.788132
C 3.073375 3.653337 1.943182
C 1.773868 7.198621 1.760897
C 5.484368 0.728459 1.860675
C 4.254565 1.453426 1.848307
C 5.456183 7.868464 1.948404
C 4.296670 2.869114 1.985602
C 4.186997 7.203562 1.986840
C 7.964191 0.744731 1.755950
C 6.727239 1.429154 1.823302
C 7.955666 7.877385 1.803440
C 6.722546 2.837548 1.959785
C 7.973196 5.028088 1.983798
C 6.816855 5.787380 2.245865
C 7.954677 3.593200 1.922622
C 6.720716 7.165253 1.990468
N 4.113166 5.883619 2.230669
N 5.528671 3.455714 2.184348
N 2.997957 7.921163 1.790332
Co 5.479469 5.019768 3.106511
