25
Title                                   
C 7.789202 1.736572 1.909417
C 7.756558 4.289965 1.906179
C 7.789267 6.843142 1.909719
C 1.661599 0.715245 1.909995
C 0.640353 1.736398 1.909579
C 1.661719 7.864098 1.910089
C 1.334627 5.577007 1.906916
C 0.673291 4.289780 1.906519
C 1.334551 3.002407 1.906642
C 0.640432 6.842996 1.909838
C 4.214591 0.748248 1.907057
C 2.927482 1.409677 1.907145
C 4.214624 7.831563 1.907189
C 2.927654 7.169925 1.907297
C 6.767969 0.715462 1.909639
C 5.501903 1.409821 1.906481
C 6.768050 7.864335 1.909850
C 7.095133 5.577205 1.906526
C 7.095084 3.002656 1.906008
C 5.501973 7.170148 1.906756
N 2.688114 2.763014 1.903779
N 2.688204 5.816428 1.904005
N 5.741655 2.763222 1.903038
N 5.741714 5.816634 1.903400
Cd 4.214788 4.290063 1.901035
