31
Title                                   
C 0.554543 0.759640 1.867720
C 9.196783 1.470691 1.874514
C 0.555159 7.894871 1.867870
C 9.231754 2.895269 1.872769
C 0.550894 5.038509 1.861895
C 9.224181 5.771670 1.872550
C 0.559132 3.615898 1.861827
C 9.206344 7.191536 1.875536
C 3.014105 0.770931 1.895386
C 1.772846 1.462944 1.876043
C 3.014163 7.891667 1.894611
C 1.755282 2.882768 1.873450
C 2.946389 5.039950 1.901727
C 1.747666 5.759095 1.874042
C 2.946379 3.585144 1.901144
C 1.782378 7.183732 1.875496
C 5.489576 0.776640 1.922584
C 4.229888 1.507195 1.917959
C 5.489521 7.877415 1.922489
C 4.138382 5.757249 1.930666
C 4.234150 7.155138 1.917824
C 7.965001 0.762594 1.893915
C 6.745120 1.499315 1.917540
C 7.964944 7.883274 1.894666
C 6.841408 2.897147 1.929824
C 8.033298 5.069158 1.899433
C 8.033316 3.614483 1.900169
C 6.749272 7.146832 1.917253
N 4.127274 2.894749 1.928970
N 6.852350 5.759448 1.927635
Au 5.489874 4.327090 1.951793
