32
Title                                   
C 0.558499 0.781037 1.629615
C 9.188147 1.485525 1.684176
C 0.550681 7.900670 1.628239
C 9.183544 2.909345 1.782792
C 0.558956 5.039957 1.719531
C 9.194319 5.748813 1.765627
C 0.563045 3.619814 1.752094
C 9.183554 7.177024 1.686793
C 3.017451 0.774062 1.693551
C 1.797158 1.498220 1.678968
C 3.017012 7.908370 1.705103
C 1.816664 2.926904 1.764121
C 3.015001 5.086836 1.948399
C 1.787695 5.759749 1.738125
C 3.071854 3.641455 1.924793
C 1.784008 7.188886 1.679535
C 5.484998 0.723895 1.898149
C 4.261429 1.450115 1.842141
C 4.283716 2.853317 2.014131
C 4.223246 7.189471 1.930916
C 7.965485 0.761478 1.702208
C 6.724303 1.432308 1.860108
C 7.946414 7.890822 1.716287
C 6.720529 2.836716 2.050802
C 7.977380 5.055059 2.028544
C 6.820691 5.830764 2.355702
C 7.940587 3.610097 1.980059
C 6.736847 7.177057 1.970581
N 4.145227 5.865477 2.252527
N 5.503604 3.428361 2.380870
N 5.470892 7.862731 1.955416
Nb 5.440828 4.996855 3.593598
