32
Title                                   
C 0.555268 0.790061 1.710383
C 9.184060 1.494479 1.752498
C 0.555423 7.910425 1.681366
C 9.167030 2.926281 1.814854
C 0.555105 5.040983 1.727915
C 9.200196 5.761309 1.743946
C 0.555261 3.623863 1.781701
C 9.200704 7.187195 1.713348
C 3.016854 0.765167 1.760910
C 1.795902 1.494449 1.751886
C 3.008829 7.891865 1.760679
C 1.812888 2.926185 1.812952
C 3.020602 5.085297 1.921953
C 1.779502 5.761282 1.741203
C 3.058528 3.630800 1.925240
C 1.779382 7.187237 1.711607
C 5.490168 0.704263 1.876449
C 4.261651 1.441681 1.840443
C 5.490174 7.827597 1.953171
C 4.300576 2.861686 1.961010
C 4.211084 7.143900 1.939959
C 7.963203 0.765083 1.762079
C 6.718666 1.441854 1.841531
C 7.971425 7.891721 1.763284
C 6.679705 2.861888 1.963255
C 7.959590 5.085468 1.929120
C 7.921693 3.630855 1.930300
C 6.769530 7.143855 1.944783
N 4.155581 5.802416 2.117473
N 5.489925 3.495608 2.130043
N 6.825836 5.803029 2.127689
Cd 5.479419 5.033409 3.920469
