32
Title                                   
C 0.550180 0.773525 1.655923
C 9.192892 1.479000 1.694116
C 0.563988 7.897865 1.654807
C 9.187445 2.910787 1.764825
C 0.561110 5.042636 1.694825
C 9.205585 5.752314 1.749434
C 0.561505 3.617208 1.720502
C 9.199911 7.176108 1.704026
C 3.010759 0.755972 1.749576
C 1.789911 1.472531 1.700920
C 1.800136 2.904988 1.757480
C 2.997968 5.046719 1.986360
C 1.793114 5.762957 1.737384
C 3.017926 3.610636 1.943735
C 1.793319 7.188903 1.707865
C 5.489858 0.743134 1.864121
C 4.245612 1.448058 1.850778
C 5.476906 7.887434 1.964591
C 4.246871 2.862819 2.037088
C 4.112359 5.838196 2.316054
C 5.489048 3.454524 2.332157
C 4.211146 7.196447 2.028246
C 7.963491 0.760717 1.725742
C 6.730353 1.456731 1.834899
C 7.965353 7.891261 1.755310
C 6.728160 2.867317 2.033060
C 7.987773 5.046239 1.996793
C 6.858120 5.822971 2.300571
C 7.968829 3.607773 1.953928
C 6.738527 7.184027 1.992995
N 3.008415 7.903723 1.773047
Cu 5.487193 5.047668 3.332339
