31
Title                                   
C 0.554919 0.769650 1.738437
C 9.195498 1.478341 1.764389
C 0.554707 7.884568 1.738242
C 9.202713 2.901689 1.776204
C 0.554713 5.038882 1.747910
C 9.202570 5.752931 1.776019
C 0.554909 3.615440 1.748102
C 9.195196 7.176197 1.764230
C 3.027410 0.764657 1.818198
C 1.783851 1.478207 1.767565
C 3.027122 7.889620 1.818010
C 1.776785 2.901807 1.779912
C 3.006470 5.049194 1.888019
C 1.776471 5.752492 1.779619
C 3.006744 3.604836 1.887881
C 1.783577 7.176071 1.767216
C 5.489600 0.790588 1.968592
C 4.237712 1.507560 1.937067
C 5.489222 7.863729 1.967940
C 4.237179 7.146502 1.936850
C 7.952161 0.764605 1.813656
C 6.741768 1.507142 1.932271
C 7.951855 7.889776 1.813527
C 7.972399 5.049652 1.880553
C 7.972478 3.605034 1.880634
C 6.741317 7.147194 1.931458
N 4.187893 2.890337 2.033129
N 4.187566 5.763764 2.033402
N 6.791370 2.890189 2.024859
N 6.790976 5.764142 2.024061
Y 5.494234 4.327247 3.081346
