32
Title                                   
C 0.555989 0.781391 1.691142
C 9.186420 1.484708 1.744602
C 0.549673 7.901283 1.678779
C 9.176229 2.911259 1.843522
C 0.556208 5.039222 1.752142
C 9.194152 5.751201 1.819709
C 0.560132 3.619019 1.790640
C 9.187331 7.176199 1.740975
C 3.012308 0.768556 1.746937
C 1.795124 1.495423 1.729864
C 3.012654 7.905984 1.742678
C 1.816259 2.926700 1.782896
C 3.028253 5.084399 1.858848
C 1.782590 5.759719 1.732134
C 3.068992 3.638329 1.870151
C 1.781550 7.185566 1.701008
C 5.483634 0.714751 1.901869
C 4.261291 1.438181 1.849059
C 4.299303 2.855981 1.957160
C 4.220191 7.172616 1.905447
C 7.965979 0.755961 1.759842
C 6.719310 1.426737 1.880295
C 7.952040 7.889538 1.771013
C 6.697802 2.844773 2.039715
C 7.977226 5.059019 2.099544
C 6.840263 5.845925 2.436214
C 7.939341 3.612582 2.031209
C 6.744224 7.172222 2.027965
N 4.176843 5.836748 2.029795
N 5.494535 3.464573 2.186181
N 5.473230 7.857913 1.966743
Ni 5.424689 5.034709 3.245424
