32
Title                                   
C 0.557811 0.779574 1.690681
C 9.191684 1.477349 1.724288
C 0.545631 7.899159 1.692775
C 9.187454 2.900997 1.788387
C 0.555755 5.037116 1.756153
C 9.196006 5.745621 1.804331
C 0.565731 3.617537 1.777917
C 9.188169 7.172461 1.757933
C 3.015099 0.781206 1.732905
C 1.794232 1.500011 1.726087
C 2.997324 7.911340 1.762277
C 1.817294 2.927425 1.801199
C 3.008377 5.089243 1.974253
C 1.777442 5.765281 1.780117
C 3.068291 3.644141 1.944415
C 1.770674 7.191189 1.733483
C 5.483533 0.728595 1.855368
C 4.259112 1.463453 1.820544
C 5.470953 7.866025 1.958893
C 4.296043 2.870301 1.983652
C 4.197246 7.196453 1.967419
C 7.966263 0.750330 1.753266
C 6.728317 1.435632 1.828882
C 7.957503 7.881148 1.807235
C 6.722489 2.836670 1.978031
C 7.976900 5.030838 2.009001
C 6.826040 5.796966 2.306724
C 7.950973 3.596129 1.938903
C 6.731395 7.176073 2.017453
N 4.128361 5.856499 2.229154
N 5.524154 3.457179 2.228940
Fe 5.477509 5.029247 3.182836
