25
Title                                   
C 7.777787 1.755564 1.908983
C 7.743948 4.300874 1.906200
C 7.781253 6.833828 1.909568
C 1.682670 0.716874 1.909727
C 0.641889 1.757515 1.909465
C 1.680734 7.852760 1.909537
C 1.324241 5.568809 1.906877
C 0.646437 4.296294 1.906696
C 1.317559 3.030555 1.907941
C 0.654725 6.824114 1.909442
C 4.220965 0.721678 1.907351
C 2.955455 1.392801 1.908192
C 4.225702 7.819067 1.907063
C 2.945247 7.159748 1.907012
C 6.749015 0.729680 1.909309
C 5.493605 1.399200 1.906461
C 6.758926 7.856234 1.909643
C 7.092507 5.578200 1.906784
C 7.084708 3.020108 1.905798
C 5.503088 7.167567 1.906893
C 2.744292 2.819386 1.907107
N 2.726540 5.775511 1.903747
N 5.700525 2.801199 1.902841
N 5.715532 5.790510 1.903903
Nb 4.203190 4.277937 1.897560
