32
Title                                   
C 0.551975 0.784533 1.711806
C 9.177078 1.495285 1.764602
C 0.559553 7.892324 1.678868
C 9.174484 2.920911 1.839739
C 0.551308 5.040854 1.731419
C 9.192707 5.744912 1.735022
C 0.548387 3.614511 1.809205
C 9.195020 7.179257 1.713197
C 3.016142 0.757235 1.738045
C 1.795495 1.484074 1.753649
C 3.036082 7.887022 1.731296
C 1.789679 2.904892 1.836671
C 3.011608 5.032882 1.951306
C 1.785135 5.731832 1.737673
C 1.798855 7.167891 1.697241
C 5.494275 0.742829 1.880960
C 4.250517 1.450814 1.849974
C 4.253183 2.867141 2.027721
C 4.246826 7.165687 1.927676
C 7.961364 0.766922 1.755344
C 6.725106 1.468202 1.851831
C 7.957957 7.899796 1.755250
C 6.703095 2.881764 2.012945
C 7.959694 5.068387 1.917682
C 6.757740 7.171965 1.929312
C 4.173481 5.781302 2.261257
C 5.473459 3.517554 2.351663
N 6.834776 5.810986 2.226587
N 5.503036 7.851743 1.941360
N 3.019658 3.601526 1.971457
N 7.932863 3.635737 1.959468
Ta 5.503225 5.090420 3.663272
