32
Title                                   
C 0.548438 0.772786 1.702126
C 9.185738 1.498536 1.709428
C 0.569377 7.887674 1.718591
C 9.169692 2.924350 1.749836
C 0.553847 5.057213 1.754156
C 0.543965 3.625236 1.755382
C 9.209108 7.181194 1.768764
C 3.016362 0.754379 1.763031
C 1.790091 1.476301 1.737279
C 1.785051 2.903206 1.784944
C 3.001203 5.032690 1.997746
C 1.783620 5.759234 1.799954
C 3.039265 3.592236 1.944816
C 1.805863 7.193111 1.760352
C 5.493297 0.741503 1.859021
C 5.490303 7.873538 1.980761
C 4.246652 2.828790 2.012918
C 4.226449 7.184439 2.039344
C 7.958435 0.766628 1.729597
C 6.712037 1.463869 1.795472
C 7.979217 7.898477 1.796829
C 6.700864 2.882343 1.935789
C 7.988546 5.091573 1.971662
C 7.912732 3.652120 1.880888
C 6.759177 7.199351 2.009721
C 4.141813 5.821002 2.287734
N 5.454716 3.420300 2.279695
N 6.883953 5.847560 2.317772
N 3.022845 7.912916 1.791678
N 4.237851 1.424998 1.842217
N 9.199038 5.755426 1.793259
Ti 5.524219 4.988213 3.442738
