32
Title                                   
C 0.555471 0.797322 1.823305
C 9.178162 1.502136 1.840310
C 0.555365 7.903731 1.813504
C 9.172406 2.923768 1.869245
C 0.555035 5.047039 1.821499
C 9.196434 5.744421 1.836163
C 0.555245 3.619477 1.856683
C 9.192557 7.180647 1.827941
C 3.016076 0.763167 1.815237
C 1.802084 1.501813 1.831194
C 3.022107 7.895923 1.821372
C 1.807526 2.923313 1.859749
C 3.037297 5.078294 1.895422
C 1.783440 5.744439 1.825080
C 1.787799 7.180889 1.817007
C 5.489892 0.722314 1.882069
C 4.259934 1.446481 1.861097
C 4.302318 2.868551 1.929986
C 4.223371 7.142549 1.890375
C 7.964334 0.763405 1.828704
C 6.720096 1.446779 1.872023
C 7.958555 7.896126 1.836625
C 6.677848 2.869029 1.941224
C 7.943267 5.078471 1.915793
C 6.757314 7.143114 1.906538
N 4.190299 5.787089 1.998844
N 5.489218 3.520513 2.067645
N 6.792119 5.788508 2.026292
N 5.490212 7.825024 1.888435
N 3.076171 3.632817 1.886180
N 7.904301 3.633461 1.903211
Cr 5.477511 5.040580 3.524746
