32
Title                                   
C 0.555154 0.791715 1.798699
C 9.178849 1.498002 1.811789
C 0.555362 7.896632 1.793060
C 9.177120 2.917515 1.847186
C 0.554942 5.043276 1.794574
C 9.191368 5.740402 1.817313
C 0.555070 3.618791 1.833580
C 9.189300 7.177845 1.810511
C 3.018959 0.763955 1.796182
C 1.800795 1.497768 1.811108
C 3.028654 7.893859 1.811762
C 1.802143 2.917309 1.842624
C 3.028479 5.061539 1.895749
C 1.788579 5.740136 1.808647
C 1.790807 7.177649 1.803919
C 5.489872 0.732975 1.886514
C 4.257785 1.455155 1.860350
C 4.284304 2.870933 1.946177
C 4.233022 7.157393 1.899893
C 7.960839 0.764215 1.794451
C 6.721978 1.455487 1.861027
C 7.951644 7.894178 1.815250
C 6.695085 2.870998 1.951629
C 7.951928 5.061748 1.912310
C 6.747285 7.158061 1.908221
N 4.193556 5.785157 2.073849
N 5.489171 3.514466 2.185634
N 6.790450 5.788257 2.102386
N 5.490413 7.832490 1.895045
N 3.071663 3.631757 1.885660
N 7.908007 3.632379 1.896298
W 5.481181 5.069150 3.562101
