32
Title                                   
C 0.548844 0.782532 1.727150
C 9.174577 1.494901 1.773459
C 0.555771 7.890486 1.673286
C 9.173412 2.916538 1.848715
C 0.552566 5.037997 1.742073
C 9.198714 5.739742 1.707326
C 0.547309 3.609158 1.836530
C 9.193111 7.176003 1.677348
C 3.010144 0.755422 1.761424
C 1.791535 1.481981 1.791537
C 3.025312 7.887341 1.737641
C 1.785632 2.902098 1.887810
C 3.009257 5.035066 1.993562
C 1.781307 5.727495 1.755079
C 1.793741 7.164987 1.703008
C 5.488624 0.741344 1.877905
C 4.247915 1.445673 1.874209
C 4.258001 2.862624 2.080856
C 4.233127 7.154557 1.925312
C 7.959573 0.765581 1.741643
C 6.718789 1.461099 1.843890
C 7.960162 7.902559 1.717114
C 6.689247 2.875262 2.023543
C 7.957638 5.066762 1.854697
C 6.758339 7.163987 1.858836
C 4.171354 5.779235 2.240094
C 5.475211 3.517768 2.356974
N 6.817005 5.797864 2.020194
N 5.496539 7.841203 1.905414
N 3.018905 3.597484 2.032730
N 7.924512 3.632457 1.944133
Y 5.617587 5.203982 3.800011
