32
Title                                   
C 0.550444 0.783102 1.708798
C 9.175930 1.498355 1.744257
C 0.559255 7.892316 1.674765
C 9.173692 2.919971 1.810330
C 0.554213 5.037755 1.720795
C 9.196584 5.744360 1.707407
C 0.548906 3.614396 1.800425
C 9.193093 7.179094 1.688391
C 3.012553 0.755124 1.761670
C 1.794149 1.482755 1.770422
C 3.032868 7.884401 1.754958
C 1.787146 2.903010 1.853804
C 3.002841 5.031242 2.015012
C 1.784935 5.729207 1.762296
C 1.797070 7.166092 1.715944
C 5.490836 0.744903 1.886746
C 4.246894 1.448316 1.882804
C 4.246463 2.862955 2.080563
C 4.242610 7.162863 1.959231
C 7.959346 0.770968 1.728209
C 6.722623 1.470461 1.840483
C 7.959288 7.904757 1.727549
C 6.701135 2.881942 2.013531
C 7.963492 5.069882 1.878136
C 6.758200 7.173847 1.896539
C 4.157366 5.788121 2.337020
C 5.474976 3.504934 2.398338
N 6.830613 5.809683 2.117751
N 5.502517 7.849505 1.919837
N 3.019781 3.600738 2.010744
N 7.928191 3.637825 1.910546
Nb 5.565754 5.108308 3.636201
