32
Title                                   
C 0.554784 0.788412 1.672532
C 9.183624 1.495730 1.729320
C 0.555141 7.904802 1.664939
C 9.168397 2.923648 1.820696
C 0.555159 5.040815 1.754674
C 9.197292 5.758146 1.784440
C 0.555098 3.620250 1.792841
C 9.195614 7.183390 1.721161
C 3.015702 0.765665 1.724370
C 1.795311 1.495668 1.720401
C 3.021219 7.900043 1.730738
C 1.810734 2.923469 1.810940
C 3.012441 5.077827 1.982149
C 1.782571 5.758212 1.772233
C 3.064248 3.630854 1.969229
C 1.784318 7.183024 1.709572
C 5.489942 0.704743 1.914847
C 4.262860 1.430463 1.868014
C 4.286194 2.840091 2.055075
C 4.215437 7.166364 1.947228
C 7.964069 0.765764 1.738860
C 6.717391 1.430315 1.881209
C 7.959375 7.900769 1.747581
C 6.692948 2.839920 2.067788
C 7.968306 5.078416 2.003524
C 7.915157 3.631179 1.987168
C 6.765869 7.167280 1.964468
N 4.138755 5.849564 2.245783
N 5.487763 3.430330 2.370222
N 6.843950 5.851833 2.271021
N 5.490231 7.831413 1.962410
Fe 5.483863 5.042794 3.328067
