32
Title                                   
C 0.557477 0.772755 1.665057
C 9.190797 1.483506 1.726222
C 0.560571 7.889404 1.653203
C 9.184746 2.909387 1.812793
C 0.552923 5.038522 1.736804
C 9.197927 5.749728 1.780205
C 0.561730 3.617311 1.778485
C 9.189214 7.181036 1.708400
C 3.015590 0.754699 1.701551
C 1.798286 1.487944 1.700927
C 3.032805 7.888686 1.721906
C 1.797094 2.907903 1.786429
C 3.015652 5.037072 1.956992
C 1.795595 5.736596 1.736419
C 1.798891 7.163694 1.689048
C 5.480745 0.750000 1.867846
C 4.243307 1.457171 1.817700
C 4.241222 2.870774 2.007747
C 4.244260 7.175064 1.955437
C 7.963855 0.769587 1.741489
C 6.720776 1.457182 1.869846
C 7.954702 7.904739 1.741925
C 6.707880 2.865370 2.069504
C 7.973065 5.056584 2.020135
C 7.946937 3.617003 1.995832
C 6.729502 7.203095 1.964406
C 4.179841 5.793894 2.308881
C 5.452189 3.492989 2.364987
C 6.807788 5.839813 2.312167
N 5.483686 7.883438 1.938995
N 3.022048 3.612889 1.933027
Nb 5.532663 5.043357 3.649133
