32
Title                                   
C 0.550370 0.761793 1.674168
C 9.191564 1.483747 1.695312
C 0.563445 7.882625 1.682477
C 9.191177 2.907464 1.744935
C 0.559532 5.051129 1.715822
C 0.552924 3.621412 1.725114
C 9.200766 7.166999 1.722915
C 3.014578 0.759735 1.750504
C 1.792829 1.474341 1.716096
C 1.787333 2.902589 1.760564
C 2.996926 5.032650 2.004548
C 1.785367 5.758556 1.774956
C 3.023666 3.598253 1.942818
C 1.801754 7.187977 1.737700
C 5.483977 0.761389 1.841957
C 5.472900 7.892337 1.970780
C 4.241274 2.848600 2.032734
C 4.216409 7.198004 2.050709
C 7.960523 0.760076 1.722088
C 6.718360 1.466569 1.807012
C 7.967375 7.887291 1.768509
C 6.735103 2.889142 1.994119
C 8.002070 5.065092 1.995540
C 7.963841 3.625111 1.921140
C 6.734380 7.201105 2.002186
C 4.133024 5.827842 2.335028
C 5.472848 3.471145 2.299919
C 6.852232 5.814324 2.307777
N 3.014976 7.911269 1.785912
N 4.234943 1.437898 1.827379
N 9.208522 5.748902 1.747074
Hf 5.508775 5.015824 3.655708
