32
Title                                   
C 0.554529 0.791074 1.750424
C 9.183601 1.496556 1.773225
C 0.554301 7.912482 1.741762
C 9.166654 2.928602 1.807318
C 0.554701 5.044891 1.762104
C 9.200566 5.764243 1.781537
C 0.554733 3.627310 1.786743
C 9.200912 7.189104 1.765738
C 3.015195 0.765910 1.786611
C 1.795021 1.496399 1.772815
C 3.006069 7.893469 1.796388
C 1.812255 2.928521 1.807026
C 3.023614 5.085624 1.904158
C 1.778090 5.764297 1.780600
C 3.059411 3.632807 1.889799
C 1.777479 7.189099 1.764321
C 5.489406 0.704924 1.871817
C 4.260681 1.442645 1.849404
C 5.489308 7.827327 1.914798
C 4.297771 2.864157 1.941908
C 4.212741 7.142616 1.920878
C 7.963694 0.766064 1.787874
C 6.718159 1.442643 1.850125
C 7.972461 7.893738 1.798509
C 6.681030 2.864046 1.942298
C 7.956007 5.085181 1.907275
C 7.919380 3.632680 1.891039
C 6.766030 7.143496 1.924018
N 4.171521 5.794548 2.045190
N 5.489306 3.506979 2.078101
N 6.808856 5.795251 2.051997
Au 5.500280 4.994510 3.867700
