32
Title                                   
C 0.558111 0.791217 1.773108
C 9.185821 1.495614 1.818201
C 0.560538 7.903385 1.748119
C 9.171070 2.924363 1.881365
C 0.550515 5.043643 1.793805
C 9.198675 5.757547 1.816310
C 0.568169 3.618658 1.848000
C 9.197489 7.188980 1.778348
C 3.014165 0.756210 1.772886
C 1.803745 1.499077 1.795074
C 3.023376 7.892299 1.768939
C 1.808848 2.920253 1.850773
C 3.035920 5.072516 1.886572
C 1.787034 5.743093 1.776269
C 1.789973 7.172020 1.752976
C 5.482272 0.714890 1.895538
C 4.258763 1.436435 1.846708
C 4.293328 2.861239 1.948102
C 4.219440 7.137555 1.883631
C 7.962731 0.769719 1.808131
C 6.711418 1.441485 1.887639
C 7.962582 7.903224 1.795025
C 6.673922 2.861387 2.004323
C 7.949015 5.085514 1.969784
C 7.911163 3.635290 1.977049
C 6.758715 7.158614 1.921681
N 4.180164 5.792953 2.027806
N 5.459897 3.498344 2.163600
N 6.800845 5.828778 2.129312
N 5.490209 7.828608 1.921802
N 3.077117 3.628133 1.907865
Mn 5.488735 5.050148 3.564758
