32
Title                                   
C 0.549591 0.771012 1.657209
C 9.192101 1.476074 1.695687
C 0.563994 7.897141 1.657016
C 9.188283 2.909292 1.765335
C 0.560250 5.043232 1.699429
C 9.202902 5.753079 1.753699
C 0.561809 3.616859 1.720992
C 9.198915 7.175629 1.707015
C 3.012516 0.756021 1.750534
C 1.791197 1.469744 1.699673
C 1.799389 2.904030 1.754193
C 2.999699 5.045145 1.976566
C 1.793720 5.763770 1.740916
C 3.016470 3.610264 1.935613
C 1.794194 7.188675 1.709628
C 5.489929 0.746533 1.866581
C 4.248732 1.452194 1.855519
C 5.477066 7.888124 1.962338
C 4.246918 2.867354 2.031297
C 4.128387 5.826222 2.304783
C 5.490214 3.478330 2.318292
C 4.215164 7.196474 2.021656
C 7.961050 0.760337 1.727412
C 6.727368 1.459148 1.837905
C 7.963228 7.889230 1.758771
C 6.728420 2.871404 2.031604
C 7.984642 5.044658 1.989674
C 6.836594 5.809985 2.277334
C 7.971459 3.606154 1.953264
C 6.734639 7.183763 1.984230
N 3.010973 7.900891 1.775402
Rh 5.493948 5.050425 3.393933
