31
Title                                   
C 0.004574 1.819920 5.959006
C 1.237564 2.553455 5.971733
C 1.237518 4.010211 6.001527
C -0.007876 4.719429 6.016239
C -0.005378 10.270742 6.015966
C 1.237599 12.428533 5.977336
C 0.007908 14.600995 5.947627
C 1.237774 15.329877 5.943435
C 1.237714 16.777496 5.941947
C 0.009793 13.150498 5.964215
C 2.470648 1.819928 5.958896
C 3.709548 2.542693 5.968896
C 3.709399 3.980012 5.997222
C 2.472424 0.373498 5.944993
C 3.709640 6.796531 6.048232
C 3.709699 8.220825 6.047986
C 2.482810 4.719582 6.015817
C 2.480469 10.270620 6.015442
C 3.709681 12.441519 5.972828
C 2.467615 14.600992 5.947768
C 3.709766 15.325216 5.942391
C 3.709735 16.772155 5.941167
C 2.465541 13.150505 5.964471
C 3.709523 11.024200 5.997167
C 0.002936 0.373500 5.944969
N 2.508676 8.915270 6.045140
N 4.910643 8.915377 6.046747
N 2.518168 6.102416 6.046492
N -0.043020 6.102323 6.047729
N 1.237573 10.968614 6.003601
Mn 1.237828 7.481215 6.064212
