32
Title                                   
C 0.555114 0.793023 1.769042
C 9.178309 1.497179 1.800686
C 0.555103 7.898094 1.750187
C 9.176161 2.917120 1.857747
C 0.554810 5.043130 1.768397
C 9.191110 5.741394 1.786514
C 0.555005 3.616602 1.835926
C 9.189624 7.179323 1.772928
C 3.021196 0.763842 1.769829
C 1.801669 1.496953 1.793519
C 3.027948 7.892946 1.778270
C 1.803287 2.917121 1.852420
C 3.026424 5.064740 1.916407
C 1.788195 5.741417 1.781418
C 1.790155 7.179303 1.765870
C 5.489814 0.731304 1.904282
C 4.260504 1.454513 1.858504
C 4.286242 2.869793 1.958427
C 4.231475 7.157147 1.915658
C 7.959295 0.763831 1.781575
C 6.719614 1.453980 1.866434
C 7.952338 7.893029 1.789779
C 6.693158 2.869211 1.964899
C 7.952952 5.064438 1.925066
C 6.748555 7.157297 1.924099
N 4.164210 5.804080 2.183280
N 5.489308 3.501695 2.216480
N 6.816198 5.804397 2.193375
N 5.489908 7.834550 1.927998
N 3.068834 3.629278 1.917122
N 7.910874 3.628950 1.926631
Os 5.486375 5.051510 3.460733
