31
Title                                   
C 0.000594 1.818480 5.899748
C 1.230754 2.553172 5.918955
C 1.228166 4.007150 5.991491
C -0.017169 4.721338 6.076402
C -0.017777 10.265606 6.079557
C 1.230584 12.433994 5.927073
C -0.002037 14.611893 5.879513
C 1.232417 15.336366 5.870188
C 1.232554 16.780780 5.867462
C 0.000406 13.168940 5.908289
C 2.464606 1.821807 5.880687
C 3.706839 2.540737 5.898829
C 3.708392 3.971322 5.942841
C 2.466528 0.378263 5.863835
C 3.699281 6.772861 6.098602
C 3.699247 8.213546 6.097702
C 2.479754 4.711023 5.946795
C 2.479315 10.275608 5.949991
C 3.706529 12.446561 5.907850
C 2.466323 14.609317 5.869207
C 3.703876 15.337009 5.865294
C 3.703907 16.779849 5.862561
C 2.464417 13.165520 5.889706
C 3.707704 11.015989 5.949138
C 1.227764 10.979696 5.996876
C -0.001943 0.375618 5.874247
N 2.511990 8.908691 5.904770
N 4.891272 8.904620 6.325272
N 2.512177 6.077444 5.906577
N -0.052511 6.081568 6.325052
Sc 1.422535 7.493382 6.926688
