32
Title                                   
C 0.555456 0.785294 1.720194
C 9.189861 1.492406 1.749824
C 0.568685 7.903983 1.713158
C 9.180172 2.923118 1.796501
C 0.565106 5.049718 1.727350
C 9.206055 5.757539 1.778199
C 0.560036 3.616959 1.760484
C 9.207212 7.185944 1.756682
C 3.023270 0.757327 1.785587
C 1.803650 1.486762 1.753807
C 1.808215 2.909929 1.787385
C 3.014759 5.058052 1.943250
C 1.792623 5.766728 1.755094
C 3.063896 3.618725 1.920272
C 1.789428 7.190819 1.741070
C 5.489965 0.724671 1.911391
C 5.472813 7.852963 1.996092
C 4.264365 2.835719 2.015824
C 4.209678 7.173631 2.009788
C 7.957165 0.764261 1.766694
C 6.708177 1.448260 1.855634
C 7.972034 7.898779 1.800736
C 6.707685 2.859117 2.000295
C 7.978555 5.074244 1.966811
C 7.916176 3.629515 1.932831
C 6.759273 7.174167 1.995411
N 4.113638 5.845951 2.243305
N 5.467558 3.423813 2.295426
N 6.847710 5.824350 2.229946
N 3.021008 7.912540 1.790697
N 4.237352 1.431865 1.880161
V 5.482187 5.034043 3.333602
