32
Title                                   
C 0.015554 1.785898 5.819456
C 1.252700 2.507854 5.843066
C 1.262526 3.935033 5.911198
C 0.062379 6.057462 6.061651
C 0.021181 4.649545 5.939255
C -0.056262 10.329252 6.046520
C 1.210336 12.464647 5.952898
C -0.010030 14.623409 5.847759
C 1.227165 15.342265 5.837529
C 1.237452 16.769842 5.816567
C -0.019106 13.193825 5.892378
C 2.485166 1.786406 5.822466
C 3.725733 2.504101 5.830910
C 3.735596 3.922663 5.881859
C 2.476385 0.359119 5.812231
C 2.487180 6.050820 6.088354
C 3.709153 8.247949 6.199893
C 2.510388 4.644827 5.952930
C 2.454137 10.344943 6.200901
C 3.685409 12.489583 5.933194
C 2.458839 14.622537 5.858881
C 3.699604 15.339756 5.834372
C 3.709525 16.769464 5.813201
C 2.448729 13.194324 5.918384
C 3.675677 11.064802 6.034121
C 1.201425 11.036211 6.072336
C 0.004625 0.358461 5.809563
C 2.553638 8.966706 6.568545
N 4.878042 8.945034 5.980996
N 1.281087 6.693936 6.200430
N 3.743068 6.807237 6.087854
Rh 1.130033 8.239412 7.581603
