31
Title                                   
C -0.048225 1.809985 5.896146
C 1.177474 2.540080 5.925069
C 1.150746 3.981686 6.006455
C -0.101772 4.690812 6.070026
C 0.110109 10.287989 5.881624
C 1.305003 12.429811 5.908297
C 0.033035 14.598579 5.857887
C 1.254385 15.328497 5.864531
C 1.225267 16.772132 5.865949
C 0.060914 13.150864 5.866090
C 2.422722 1.811149 5.887919
C 3.650349 2.533393 5.901400
C 3.616166 3.976589 5.958534
C 2.451875 0.366269 5.866885
C 3.654648 6.775630 6.158682
C 3.785493 8.249878 6.168985
C 2.374576 4.714458 6.001816
C 2.580857 10.291220 6.087137
C 3.769892 12.445168 5.872287
C 2.494628 14.603136 5.868871
C 3.726541 15.321521 5.857678
C 3.697887 16.768146 5.859724
C 2.523675 13.154326 5.888443
C 3.801602 11.016645 5.908333
C -0.019600 0.366783 5.869031
C 0.060937 8.872228 5.857200
C 2.413091 6.155627 6.061661
N 2.600989 8.962404 6.447692
N -0.130628 6.053000 6.293100
N 1.334809 10.998433 5.968808
Tc 1.164970 7.531709 6.774939
