25
Title                                   
C 7.787824 1.767270 1.909040
C 7.763704 4.285955 1.906235
C 7.776642 6.816488 1.909340
C 1.688296 0.727871 1.909675
C 0.653059 1.763032 1.909292
C 1.692424 7.862769 1.909775
C 1.335247 5.547314 1.907130
C 0.666233 4.293814 1.906609
C 1.353024 3.024694 1.906511
C 0.641868 6.812279 1.909471
C 4.218665 0.741067 1.907182
C 2.949866 1.427950 1.907026
C 4.210630 7.838716 1.907249
C 2.957407 7.169548 1.907510
C 6.737185 0.716892 1.909351
C 5.472057 1.410270 1.906798
C 6.741306 7.851698 1.909506
C 7.076691 5.554943 1.906304
C 7.094521 3.032401 1.906118
C 5.479585 7.151735 1.906710
C 2.770302 5.734618 1.905184
C 5.659489 2.845134 1.904123
N 2.747933 2.822592 1.903860
N 5.681790 5.757049 1.903636
Os 4.214789 4.289912 1.900464
