31
Title                                   
C 0.555383 0.760354 1.586184
C 9.193513 1.465201 1.649482
C 0.555315 7.893796 1.586063
C 9.217102 2.887905 1.617273
C 0.555879 5.043793 1.509525
C 9.217016 5.766264 1.616626
C 0.555818 3.610155 1.509796
C 9.193535 7.188922 1.649368
C 3.012962 0.766658 1.865390
C 1.786216 1.465377 1.657482
C 3.012873 7.887534 1.865264
C 1.763150 2.888206 1.628323
C 2.932322 5.056221 1.928653
C 1.763184 5.766022 1.628201
C 2.932495 3.597850 1.928122
C 1.786164 7.188774 1.657468
C 5.489868 0.767391 2.192124
C 4.218075 1.497361 2.129630
C 5.489789 7.887022 2.192248
C 4.106778 2.904014 2.260472
C 4.106503 5.750504 2.261243
C 4.217870 7.156961 2.130147
C 7.966078 0.766870 1.854761
C 6.760854 1.497696 2.118072
C 7.966220 7.887595 1.854588
C 6.871570 2.905160 2.240109
C 8.045604 5.056164 1.906156
C 6.871867 5.749732 2.240203
C 8.045733 3.598087 1.906590
C 6.760852 7.156972 2.118124
Au 5.490786 4.327481 2.531612
