32
Title                                   
C 0.553981 0.788018 1.822010
C 9.182155 1.495890 1.840283
C 0.553728 7.909312 1.814596
C 9.165194 2.929154 1.874741
C 0.554615 5.045690 1.841725
C 9.193381 5.761233 1.864358
C 0.554977 3.626642 1.850758
C 9.193777 7.186462 1.837391
C 3.013411 0.764447 1.821571
C 1.795547 1.496296 1.829507
C 3.016057 7.898828 1.817551
C 1.814206 2.929516 1.847508
C 3.039774 5.087066 1.848167
C 1.784961 5.761810 1.827861
C 3.067458 3.635567 1.874763
C 1.783414 7.186123 1.814066
C 5.489107 0.698210 1.859771
C 4.267427 1.430306 1.859398
C 4.305170 2.862690 1.937112
C 4.218825 7.134151 1.833997
C 7.964191 0.764142 1.832886
C 6.710988 1.430529 1.874116
C 7.960822 7.898158 1.838121
C 6.673032 2.860605 1.971488
C 7.943127 5.084271 1.947525
C 7.913317 3.633472 1.942938
C 6.755327 7.138702 1.898984
N 4.209108 5.803710 1.852415
N 5.488388 3.505146 2.081532
N 6.779411 5.809647 2.019884
N 5.489519 7.825078 1.838592
Pd 5.499369 5.030318 3.697884
