31
Title                                   
C 0.005603 1.810076 5.882018
C 1.237529 2.537820 5.909037
C 1.237686 3.989050 5.981300
C -0.006788 4.692885 6.014500
C 0.005770 10.306613 6.003880
C 1.236433 12.452366 5.901831
C 0.006789 14.613748 5.857140
C 1.236973 15.338242 5.857567
C 1.237218 16.779477 5.859274
C 0.007088 13.173111 5.872872
C 2.469638 1.810234 5.880607
C 3.709860 2.529337 5.888594
C 3.710499 3.957645 5.938873
C 2.471315 0.370676 5.861004
C 3.709553 6.744244 6.119585
C 3.708326 8.200719 6.133523
C 2.482796 4.692178 6.005357
C 2.466507 10.307319 5.992274
C 3.708690 12.460320 5.870734
C 2.466870 14.613640 5.856159
C 3.709004 15.335342 5.851321
C 3.709178 16.773441 5.854127
C 2.466142 13.173032 5.871033
C 3.708543 11.046680 5.911007
C 0.003018 0.370477 5.861764
C 2.468684 8.912409 6.144732
C 0.004208 8.912944 6.177351
N 2.515373 6.068046 6.117179
N -0.039056 6.069004 6.144712
N 1.236147 11.036831 5.969810
Hf 1.252819 7.480243 7.112033
