32
Title                                   
C 0.559249 0.771352 1.681107
C 9.194701 1.472131 1.727132
C 0.551388 7.892592 1.660937
C 9.197461 2.894871 1.764843
C 0.559610 5.033003 1.671194
C 9.204287 5.743258 1.727861
C 0.563831 3.611135 1.710745
C 9.191332 7.171668 1.711497
C 3.020797 0.772891 1.771669
C 1.792148 1.488731 1.724891
C 3.004225 7.902658 1.765383
C 1.801972 2.914469 1.761630
C 2.993265 5.064917 1.894436
C 1.777045 5.757473 1.696140
C 3.036680 3.632339 1.921191
C 1.776419 7.184235 1.687116
C 5.484637 0.738814 1.937963
C 4.255211 1.465679 1.902817
C 5.475502 7.857326 1.992554
C 4.266206 2.887917 2.058543
C 5.510638 3.511176 2.333327
C 4.208213 7.181534 1.955072
C 7.963861 0.753557 1.785914
C 6.730669 1.448556 1.911263
C 7.962554 7.884292 1.801286
C 6.743763 2.863334 2.058872
C 7.998457 5.026671 1.948513
C 6.836623 5.771470 2.225757
C 7.975017 3.594641 1.940467
C 6.743532 7.162943 2.010241
N 4.122443 5.815390 2.160663
Ti 5.432027 5.140165 3.412477
