31
Title                                   
C -0.015369 1.799467 5.876269
C 1.214232 2.525886 5.904408
C 1.208196 3.956058 5.982540
C -0.034670 4.672883 6.023455
C 0.028357 10.321811 6.007615
C 1.253291 12.470995 5.908618
C 0.005250 14.626935 5.857838
C 1.239020 15.346329 5.854145
C 1.230307 16.777340 5.852462
C 0.013676 13.193809 5.879370
C 2.454623 1.802802 5.874803
C 3.692126 2.514792 5.888422
C 3.681150 3.947036 5.948256
C 2.462971 0.369732 5.854225
C 3.712242 6.724723 6.140750
C 3.751862 8.207940 6.165423
C 2.445335 4.671540 6.005549
C 2.499834 10.316617 6.047270
C 3.724780 12.477630 5.898706
C 2.477916 14.626481 5.860271
C 3.711140 15.345633 5.852213
C 3.702104 16.780531 5.849750
C 2.487452 13.195137 5.885587
C 3.732763 11.042774 5.964621
C 1.261751 11.047251 5.985736
C -0.007373 0.367094 5.854368
C 2.516935 8.902921 6.207633
C 0.027338 8.900910 6.097715
C 2.482330 6.085505 6.105492
N -0.046140 6.047335 6.152405
Ti 1.228987 7.492249 6.915283
