25
Title                                   
C 7.786270 1.767714 1.909013
C 7.763575 4.287207 1.906126
C 7.781749 6.822055 1.909064
C 1.682689 0.722889 1.909325
C 0.647791 1.757644 1.908973
C 1.692837 7.861526 1.909808
C 1.337888 5.545522 1.907951
C 0.666164 4.292489 1.906611
C 1.353518 3.018825 1.906358
C 0.643161 6.811861 1.909446
C 4.217178 0.741043 1.907356
C 2.943822 1.428576 1.906910
C 4.211829 7.838546 1.907379
C 2.958995 7.166766 1.908496
C 6.736341 0.718226 1.909578
C 5.470010 1.412968 1.907767
C 6.746577 7.856824 1.909331
C 7.076313 5.560896 1.906114
C 7.091805 3.034068 1.906614
C 5.485318 7.151145 1.906612
C 2.770757 5.734106 1.906214
C 5.659095 2.845605 1.904504
N 2.739609 2.814176 1.903366
N 5.690529 5.765322 1.902989
Ru 4.216718 4.290013 1.898193
