32
Title                                   
C 0.000650 1.794150 5.801694
C 1.235549 2.515151 5.852189
C 1.235172 3.948011 5.990350
C 0.032944 6.059465 6.289003
C -0.009965 4.659089 6.054603
C -0.026792 10.303359 6.023470
C 1.235863 12.437454 5.851558
C 0.002583 14.609234 5.766922
C 1.236098 15.331607 5.753483
C 1.236143 16.768713 5.747864
C 0.003350 13.171482 5.813208
C 2.470488 1.794039 5.801427
C 3.707437 2.515613 5.833454
C 3.707233 3.935947 5.940913
C 2.472184 0.359634 5.754183
C 2.438114 6.059715 6.283333
C 3.705482 8.275093 6.195856
C 2.480176 4.659453 6.052095
C 2.496956 10.300168 6.003549
C 3.707154 12.468788 5.839517
C 2.469367 14.609491 5.765278
C 3.708051 15.328843 5.751211
C 3.708071 16.765797 5.743628
C 2.467622 13.171864 5.810441
C 3.705647 11.040076 5.935810
C 1.235745 10.991088 5.951394
C -0.000093 0.359560 5.754341
N 2.525809 8.913227 6.129128
N 4.881420 8.929744 6.230590
N 1.235188 6.666216 6.510175
N 3.707309 6.832876 6.309931
Tc 1.246378 8.472378 7.910701
