25
Title                                   
C 7.763763 1.781700 1.980519
C 7.742997 4.313455 1.937503
C 7.802106 6.841304 1.954394
C 1.685603 0.697118 1.954078
C 0.621850 1.760568 1.954528
C 1.706773 7.839067 1.979467
C 1.347991 5.521446 1.970645
C 0.638702 4.288142 1.936062
C 1.324222 3.028980 1.893371
C 0.667160 6.803016 1.979840
C 4.212699 0.713743 1.936159
C 2.953896 1.399268 1.892860
C 4.238353 7.817974 1.937347
C 2.995861 7.122475 1.972011
C 6.727868 0.742123 1.980651
C 5.445948 1.422944 1.971554
C 6.766584 7.876702 1.954791
C 7.086863 5.584901 1.897092
C 7.047303 3.070955 1.972926
C 5.510014 7.161671 1.897205
C 2.754278 2.829314 1.750324
C 2.789107 5.699469 1.960279
C 5.624132 2.864019 1.961104
N 5.713097 5.787834 1.795974
Mo 4.203368 4.277825 1.253416
