32
Title                                   
C 0.554009 0.790773 1.757521
C 9.182742 1.497293 1.796438
C 0.558446 7.901182 1.740768
C 9.170472 2.923673 1.864295
C 0.554226 5.043601 1.788856
C 9.198624 5.759005 1.788248
C 0.561459 3.619024 1.838159
C 9.192992 7.190227 1.742235
C 3.011620 0.755394 1.758366
C 1.798749 1.496562 1.778601
C 3.024893 7.886940 1.795380
C 1.802070 2.919421 1.839473
C 3.032808 5.064242 1.953948
C 1.792182 5.740488 1.805317
C 1.788837 7.172918 1.784364
C 5.477605 0.723540 1.873296
C 4.249567 1.445567 1.818307
C 4.268764 2.863807 1.924055
C 4.225140 7.144685 1.945655
C 7.958702 0.774851 1.770121
C 6.709057 1.443639 1.860286
C 7.954907 7.905772 1.738830
C 6.675351 2.859108 1.988789
C 7.953207 5.085366 1.931177
C 7.902716 3.637561 1.958986
C 6.745024 7.176136 1.857465
N 4.175090 5.793658 2.211287
N 5.449195 3.485196 2.201600
N 6.796232 5.837723 2.083222
N 5.481380 7.836670 1.911869
N 3.064428 3.628944 1.915151
Zr 5.623268 5.008223 3.691436
