25
Title                                   
C 7.776398 1.763565 1.906194
C 7.764376 4.301042 1.877921
C 7.813068 6.851178 1.876280
C 1.653517 0.691894 1.877607
C 0.616745 1.728121 1.878035
C 1.689108 7.851559 1.906233
C 1.339580 5.535659 1.957539
C 0.665274 4.278916 1.878562
C 1.323512 2.989895 1.823622
C 0.653393 6.816050 1.905604
C 4.203555 0.740427 1.877557
C 2.914972 1.398946 1.822762
C 4.225935 7.839573 1.877694
C 2.969407 7.165427 1.957528
C 6.740771 0.728126 1.905735
C 5.460353 1.414403 1.956813
C 6.776528 7.887812 1.876401
C 7.105899 5.589470 1.821993
C 7.090250 3.044074 1.957204
C 5.514807 7.180862 1.822176
C 2.725500 5.779612 2.132883
C 5.704240 2.800304 2.131789
N 2.670943 2.746394 1.713572
N 5.758388 5.833273 1.712954
Cd 4.214021 4.289429 2.219442
