32
Title                                   
C 0.555063 0.765739 1.712303
C 9.191814 1.475540 1.744199
C 0.555020 7.890183 1.716531
C 9.187928 2.904094 1.781400
C 0.554939 5.035708 1.746880
C 9.197643 5.752005 1.790029
C 0.554880 3.615167 1.752779
C 9.193549 7.177550 1.763204
C 3.015347 0.765389 1.787731
C 1.787820 1.475595 1.743190
C 3.013295 7.892144 1.816374
C 1.791377 2.904115 1.780175
C 3.003043 5.039600 1.953623
C 1.781820 5.751974 1.788122
C 3.012404 3.606419 1.920483
C 1.785925 7.177440 1.761534
C 5.490003 0.755070 1.894458
C 4.250611 1.466259 1.875241
C 5.489812 7.892536 1.960981
C 4.247514 2.882302 1.999664
C 4.173660 5.793706 2.182896
C 5.489573 3.520209 2.224498
C 4.241811 7.187780 1.981966
C 7.964456 0.765509 1.789089
C 6.729276 1.466353 1.876105
C 7.966238 7.892283 1.817932
C 6.731871 2.882333 2.000552
C 7.976554 5.039521 1.956048
C 6.806231 5.793881 2.184545
C 7.966963 3.606383 1.922364
C 6.737677 7.187768 1.983035
Co 5.489647 5.050635 3.105568
