32
Title                                   
C 0.001829 1.788474 5.817866
C 1.238480 2.508679 5.871199
C 1.234140 3.931008 6.002820
C 0.009704 6.032983 6.251836
C -0.009253 4.644042 6.037680
C 0.003882 10.257291 5.965312
C 1.257021 12.444475 5.901064
C 0.020738 14.609435 5.804727
C 1.253322 15.331897 5.791805
C 1.247183 16.765365 5.776969
C 0.028512 13.178954 5.854441
C 2.474609 1.786720 5.824887
C 3.706380 2.510257 5.847480
C 3.698077 3.935744 5.943247
C 2.481473 0.355165 5.782783
C 2.436410 6.068783 6.287066
C 3.763699 8.219173 6.195273
C 2.466894 4.659885 6.068227
C 2.527701 10.339938 6.141564
C 3.736311 12.467162 5.911702
C 2.487316 14.607998 5.819319
C 3.723613 15.328330 5.791526
C 3.718525 16.762045 5.773337
C 2.489790 13.172628 5.885055
C 3.736553 11.051208 6.010960
C 1.268491 10.993193 5.970985
C 0.008681 0.357360 5.777372
C 2.628703 8.951773 6.555721
N 4.883178 8.852980 5.545043
N 1.204048 6.700898 6.567198
N 3.709854 6.771132 6.253715
Nb 0.821466 8.662349 7.423121
