31
Title                                   
C 0.005706 1.812902 5.892014
C 1.237924 2.542808 5.916713
C 1.237947 3.992135 5.982181
C -0.007150 4.699070 6.009639
C 0.009079 10.301324 5.993778
C 1.237884 12.450887 5.913548
C 0.006954 14.613466 5.879434
C 1.237208 15.338374 5.878580
C 1.237235 16.780254 5.876169
C 0.007588 13.171285 5.892891
C 2.469819 1.812670 5.892692
C 3.709747 2.531969 5.900757
C 3.709629 3.961329 5.949907
C 2.471312 0.372495 5.876261
C 3.709995 6.739462 6.118371
C 3.710609 8.196443 6.132983
C 2.482624 4.699811 6.011812
C 2.467432 10.300591 5.996670
C 3.709798 12.457856 5.894815
C 2.467661 14.613622 5.879754
C 3.709367 15.335072 5.873360
C 3.709397 16.774880 5.871086
C 2.467847 13.171464 5.893330
C 3.710091 11.040181 5.931912
C 0.003382 0.372703 5.875729
C 2.462576 8.902741 6.133526
C 0.013705 8.903322 6.125508
N 2.515274 6.073234 6.117116
N -0.040083 6.072439 6.110382
N 1.238259 11.033896 5.961629
Ti 1.233600 7.489464 6.918654
