32
Title                                   
C 0.552994 0.788721 1.765741
C 9.176428 1.504764 1.779762
C 0.562381 7.897590 1.757940
C 9.163067 2.929485 1.789076
C 0.558576 5.047871 1.763379
C 9.194024 5.750815 1.763232
C 0.547999 3.620388 1.806696
C 9.196892 7.183171 1.767542
C 3.019861 0.751015 1.823995
C 1.800562 1.485949 1.801554
C 3.041101 7.880767 1.835892
C 1.798476 2.907328 1.853913
C 3.031419 5.037238 2.020657
C 1.797832 5.737321 1.812041
C 1.801902 7.171075 1.795032
C 5.499565 0.733110 1.938899
C 4.256708 1.448841 1.910973
C 4.279508 2.863694 1.962388
C 4.257002 7.158283 2.039379
C 7.961786 0.770309 1.807898
C 6.719369 1.467929 1.873101
C 7.960597 7.905528 1.815606
C 6.671832 2.886201 1.867427
C 7.935216 5.087492 1.805922
C 6.755261 7.163049 1.915189
C 4.173053 5.792217 2.431692
N 5.469196 3.547137 2.002345
N 6.772127 5.800104 1.930349
N 5.511639 7.860770 2.000248
N 3.046068 3.606618 1.958717
N 7.898322 3.647654 1.788496
Ir 5.522999 4.978756 3.528418
