25
Title                                   
C 7.774938 1.759307 1.909186
C 7.759503 4.290023 1.906268
C 7.775045 6.820466 1.909443
C 1.684439 0.729457 1.909829
C 0.654644 1.759052 1.909476
C 1.684547 7.849846 1.909938
C 1.334837 5.564639 1.907004
C 0.670341 4.289793 1.906631
C 1.334743 3.014804 1.906740
C 0.654742 6.820257 1.909648
C 4.214597 0.745272 1.907103
C 2.939958 1.409808 1.907184
C 4.214652 7.834582 1.907233
C 2.940155 7.169795 1.907297
C 6.745086 0.729790 1.909514
C 5.489373 1.409973 1.906554
C 6.745203 7.850144 1.909611
C 7.094855 5.564890 1.906484
C 7.094875 3.015143 1.905968
C 5.489523 7.170012 1.906823
N 2.734274 2.809047 1.904036
N 2.734426 5.770397 1.904225
N 5.695482 2.809212 1.903392
N 5.695451 5.770594 1.903721
Nb 4.214849 4.289709 1.900792
