32
Title                                   
C 0.549163 0.771198 1.686622
C 9.188847 1.497978 1.706956
C 0.571754 7.887548 1.694355
C 9.178142 2.925270 1.747757
C 0.557467 5.052507 1.719377
C 0.544842 3.623508 1.725916
C 9.214701 7.184541 1.726685
C 3.021321 0.743226 1.777848
C 1.793733 1.465485 1.730201
C 1.779698 2.894779 1.769735
C 2.980987 5.014956 2.021459
C 1.779265 5.755484 1.791262
C 3.005821 3.585106 1.963887
C 1.808128 7.184840 1.752283
C 5.491887 0.745465 1.879142
C 5.496184 7.862160 1.981763
C 4.228788 2.833309 2.070141
C 4.231091 7.164241 2.065630
C 7.956925 0.774019 1.739648
C 6.709875 1.478374 1.836849
C 7.979967 7.904424 1.770003
C 6.715263 2.913137 2.007587
C 8.001295 5.097989 1.960131
C 7.945055 3.655523 1.910860
C 6.769476 7.191699 1.980477
C 4.118739 5.792467 2.343784
C 5.445549 3.474137 2.314828
N 6.903593 5.837982 2.260740
N 3.030652 7.892121 1.807188
N 4.235669 1.420758 1.873012
N 9.207846 5.762512 1.739876
Mn 5.492042 5.024446 3.357500
