32
Title                                   
C 0.554997 0.787130 1.696338
C 9.185333 1.494210 1.739593
C 0.554832 7.903643 1.702070
C 9.173232 2.921451 1.817085
C 0.554699 5.040137 1.771067
C 9.197806 5.756764 1.809520
C 0.555265 3.617884 1.794875
C 9.195446 7.184727 1.755640
C 3.014224 0.766765 1.728350
C 1.794542 1.494239 1.728729
C 3.021149 7.899823 1.751941
C 1.806932 2.921442 1.804961
C 3.010508 5.076926 1.984581
C 1.781520 5.757024 1.798370
C 3.063639 3.631683 1.943087
C 1.784183 7.185068 1.746523
C 5.489876 0.713646 1.886272
C 4.261048 1.434930 1.842419
C 4.278086 2.845943 1.993619
C 4.221930 7.174775 1.942057
C 7.966201 0.766051 1.742994
C 6.719637 1.434244 1.854932
C 7.958728 7.899008 1.765236
C 6.702713 2.845176 2.006614
C 7.970131 5.076602 2.002334
C 7.917213 3.631368 1.960190
C 6.757798 7.174142 1.955409
N 4.144805 5.847132 2.258880
N 5.489019 3.448300 2.278532
N 6.836215 5.847019 2.278172
N 5.489780 7.834399 1.933522
Ti 5.482277 4.999537 3.439587
