32
Title                                   
C 0.548390 0.792885 1.805871
C 9.184840 1.493321 1.828759
C 0.559820 7.913139 1.797975
C 9.171789 2.927658 1.868787
C 0.556278 5.051293 1.808048
C 9.199795 5.761830 1.854933
C 0.559742 3.623865 1.823237
C 9.203118 7.185339 1.834680
C 3.013055 0.754732 1.817280
C 1.793546 1.490665 1.812799
C 1.815402 2.921239 1.816070
C 3.030100 5.080351 1.806643
C 1.784881 5.773261 1.788926
C 3.064754 3.640689 1.841781
C 1.782434 7.195501 1.789124
C 5.488736 0.709407 1.872026
C 4.256715 1.435170 1.854593
C 5.476328 7.834082 1.885023
C 4.292817 2.865785 1.925254
C 4.206096 7.141062 1.828747
C 7.958011 0.759142 1.833571
C 6.715689 1.443818 1.880371
C 7.964884 7.890732 1.855805
C 6.680696 2.865713 1.989276
C 7.954039 5.076798 1.992904
C 7.923261 3.631593 1.970364
C 6.749441 7.138563 1.960577
N 4.177150 5.814872 1.821011
N 5.485260 3.500534 2.095729
N 6.806920 5.793999 2.141411
N 3.002110 7.906660 1.808617
Pd 5.527664 4.997491 3.703310
