32
Title                                   
C -0.000480 1.786034 5.736753
C 1.235164 2.501417 5.791503
C 1.235460 3.924612 5.948185
C 0.015433 6.037047 6.295359
C -0.004776 4.632025 6.032655
C -0.024664 10.344580 6.138669
C 1.235393 12.466378 5.888274
C 0.002323 14.621706 5.720211
C 1.235197 15.340482 5.695463
C 1.235019 16.771059 5.675008
C 0.004180 13.192728 5.808621
C 2.470907 1.786064 5.736706
C 3.707307 2.502537 5.779356
C 3.707539 3.921739 5.916173
C 2.471343 0.357005 5.680840
C 2.456229 6.036961 6.294894
C 3.707933 6.813231 6.361970
C 3.708015 8.284051 6.361000
C 2.475995 4.632110 6.032391
C 2.495705 10.344505 6.136956
C 3.707385 12.491485 5.851422
C 2.468014 14.621624 5.719949
C 3.707203 15.336111 5.689431
C 3.707087 16.766961 5.669760
C 2.466436 13.192699 5.808174
C 3.707503 11.075426 5.995820
C 1.235450 11.034062 6.067643
C -0.001209 0.357006 5.680935
N 2.535991 8.988578 6.358904
N 4.879100 8.989736 6.366481
N 1.235884 6.632406 6.519724
Cr 1.239267 8.264960 7.692070
