32
Title                                   
C 0.555086 0.796855 1.770726
C 9.179397 1.501922 1.812984
C 0.554954 7.902733 1.740454
C 9.174911 2.921022 1.880175
C 0.554524 5.043731 1.774197
C 9.198754 5.742419 1.793684
C 0.554904 3.617271 1.851070
C 9.193107 7.180598 1.769149
C 3.014412 0.764177 1.772956
C 1.800476 1.501581 1.797594
C 3.019626 7.898602 1.774064
C 1.804725 2.920685 1.860303
C 3.021990 5.073695 1.918236
C 1.780375 5.742384 1.771412
C 1.786889 7.180489 1.750458
C 5.489594 0.723300 1.911405
C 4.257799 1.442971 1.869952
C 4.292795 2.856131 1.993064
C 4.217211 7.156374 1.918769
C 7.965737 0.764740 1.792819
C 6.722020 1.443934 1.884054
C 7.961302 7.898973 1.795958
C 6.686702 2.857034 2.011431
C 7.959658 5.074763 1.959982
C 6.764077 7.157664 1.944270
N 4.146120 5.811604 2.132369
N 5.487900 3.470975 2.241747
N 6.839223 5.816247 2.184274
N 5.490318 7.827497 1.925853
N 3.073342 3.629771 1.925413
N 7.907480 3.630624 1.963370
Co 5.478355 5.060425 3.221307
