25
Title                                   
C 7.775865 1.766177 1.909136
C 7.751429 4.290037 1.906207
C 7.775980 6.813566 1.909426
C 1.691355 0.728452 1.909775
C 0.653668 1.765965 1.909366
C 1.691485 7.850743 1.909939
C 1.361577 5.551251 1.906774
C 0.678537 4.289798 1.906621
C 1.361410 3.028198 1.906530
C 0.653827 6.813294 1.909555
C 4.214610 0.753392 1.907090
C 2.953338 1.436366 1.907014
C 4.214647 7.826440 1.907235
C 2.953490 7.143104 1.907209
C 6.738098 0.728838 1.909402
C 5.475983 1.436725 1.906425
C 6.738237 7.851070 1.909552
C 7.068236 5.551505 1.906329
C 7.068265 3.028520 1.905936
C 5.476059 7.143293 1.906686
N 2.758712 2.833447 1.903986
N 2.758906 5.746001 1.904232
N 5.670937 2.833764 1.903456
N 5.670967 5.746180 1.903746
Ir 4.214919 4.289884 1.902475
