31
Title                                   
C 0.006848 1.813246 5.959493
C 1.237661 2.547160 5.972130
C 1.237381 3.996703 5.999613
C -0.010031 4.700557 6.014107
C -0.009841 10.286706 6.023113
C 1.237721 12.439769 5.980549
C 0.004494 14.612701 5.944405
C 1.237780 15.338146 5.936468
C 1.237784 16.778564 5.934269
C 0.006897 13.173521 5.966702
C 2.468434 1.813238 5.959732
C 3.709656 2.532093 5.971673
C 3.709541 3.957732 5.998125
C 2.470940 0.374181 5.940763
C 3.709484 6.758934 6.051716
C 3.709543 8.227887 6.055027
C 2.484791 4.700396 6.014485
C 2.485182 10.286861 6.023453
C 3.709739 12.454754 5.979995
C 2.470924 14.612786 5.944540
C 3.709751 15.338825 5.938508
C 3.709800 16.777335 5.936254
C 2.468534 13.173474 5.966797
C 3.709858 11.029280 6.007872
C 1.237701 10.990429 6.009244
C 0.004468 0.374318 5.940484
N 2.549678 8.921097 6.049530
N 4.869417 8.921022 6.048312
N 2.549295 6.066057 6.043481
N -0.074461 6.066067 6.042303
Pt 1.237528 7.494309 6.048058
