31
Title                                   
C 0.003148 1.808207 5.945469
C 1.237987 2.540438 5.962385
C 1.240483 3.983875 5.999711
C -0.018037 4.664882 6.006142
C -0.017341 10.305268 6.022098
C 1.228403 12.458790 5.973116
C -0.002396 14.624496 5.939061
C 1.233482 15.343019 5.935252
C 1.233976 16.777318 5.931430
C -0.002864 13.189217 5.956377
C 2.467369 1.804515 5.947324
C 3.705339 2.510686 5.954233
C 3.704617 3.941071 5.985048
C 2.467875 0.368622 5.933038
C 3.740180 6.706170 6.057370
C 3.737433 8.244369 6.058704
C 2.492855 4.687597 6.020295
C 2.475858 10.321950 6.027587
C 3.706858 12.475697 5.966870
C 2.468459 14.622214 5.939680
C 3.704987 15.342660 5.932948
C 3.706280 16.781605 5.929083
C 2.466956 13.183798 5.957417
C 3.701049 11.041449 5.998749
C 1.230449 11.020548 6.010156
C 0.000762 0.370659 5.931879
C 2.526613 8.898705 6.078180
N 4.897444 8.922776 6.053446
N 2.562412 6.072152 6.075523
N -0.065740 6.030562 6.034897
Rh 1.251603 7.514832 6.137732
