32
Title                                   
C 0.559215 0.794029 1.851917
C 9.186323 1.497267 1.856876
C 0.562712 7.910026 1.860453
C 9.169304 2.929634 1.861144
C 0.551631 5.048578 1.852959
C 9.197395 5.761179 1.875488
C 0.567552 3.627331 1.849841
C 9.199714 7.191802 1.873489
C 3.017395 0.756314 1.840860
C 1.807458 1.506888 1.840195
C 3.025054 7.892213 1.860143
C 1.818714 2.928958 1.838806
C 3.046088 5.080447 1.871382
C 1.789317 5.751300 1.861265
C 1.791902 7.175819 1.863170
C 5.485616 0.702470 1.864136
C 4.260341 1.433745 1.856222
C 4.311709 2.866743 1.872106
C 4.224666 7.126122 1.879510
C 7.965165 0.765551 1.864628
C 6.709279 1.436800 1.877123
C 7.966300 7.903022 1.875862
C 6.664026 2.865249 1.895535
C 7.936853 5.087271 1.907433
C 7.909296 3.637198 1.884398
C 6.757381 7.137082 1.900456
N 4.201556 5.779056 1.913120
N 5.465438 3.525354 1.917262
N 6.771412 5.806243 1.955570
N 5.490061 7.820456 1.855241
N 3.073594 3.637000 1.830891
Pd 5.451297 5.030045 3.706019
