32
Title                                   
C 0.551006 0.790002 1.719082
C 9.190385 1.491238 1.752532
C 0.566374 7.906165 1.721297
C 9.179486 2.921297 1.805940
C 0.560853 5.044542 1.731848
C 9.205709 5.757462 1.781473
C 0.559429 3.615671 1.766019
C 9.208123 7.184254 1.761918
C 3.016871 0.755357 1.776667
C 1.795740 1.483338 1.746812
C 1.810366 2.910952 1.787164
C 3.000182 5.064737 1.949914
C 1.783765 5.764938 1.765440
C 3.057276 3.633798 1.918546
C 1.783941 7.190848 1.758353
C 5.494611 0.720817 1.897643
C 4.251800 1.434778 1.866167
C 5.478238 7.840744 1.976618
C 4.270107 2.848897 1.992437
C 4.199411 7.179962 2.005992
C 7.962365 0.763517 1.770934
C 6.721059 1.443366 1.859074
C 7.970928 7.894870 1.801366
C 6.705445 2.860244 1.998906
C 7.982580 5.070079 1.975467
C 7.926588 3.629102 1.946121
C 6.761847 7.166403 1.991874
N 4.103561 5.846286 2.270518
N 5.486155 3.457035 2.243596
N 6.855359 5.817819 2.247196
N 3.011429 7.896728 1.802155
V 5.482772 5.025943 3.324432
