25
Title                                   
C 7.790285 1.760666 1.908872
C 7.772339 4.289898 1.906186
C 7.790361 6.818861 1.909181
C 1.685869 0.714088 1.909485
C 0.639005 1.760639 1.909123
C 1.685813 7.865376 1.909648
C 1.338658 5.547132 1.907280
C 0.656879 4.289895 1.906653
C 1.338600 3.032482 1.907072
C 0.639057 6.818754 1.909412
C 4.214423 0.732053 1.907233
C 2.957425 1.414187 1.907500
C 4.214409 7.847623 1.907376
C 2.957467 7.165541 1.907618
C 6.743600 0.714166 1.909200
C 5.471815 1.413445 1.906899
C 6.743752 7.865499 1.909366
C 7.090802 5.547292 1.906500
C 7.090767 3.032466 1.906167
C 5.471872 7.166329 1.907024
C 2.763969 2.839652 1.904786
C 2.763937 5.740087 1.905126
C 5.665404 2.838306 1.903728
C 5.665513 5.741448 1.903929
Ru 4.218518 4.290128 1.898736
