31
Title                                   
C 0.551071 0.762531 1.645088
C 9.188912 1.467093 1.664294
C 0.551139 7.892005 1.645252
C 9.223099 2.891071 1.629717
C 0.573011 5.037395 1.586152
C 9.223146 5.763453 1.629742
C 0.572918 3.617363 1.586018
C 9.188901 7.187444 1.664293
C 3.012112 0.770859 1.888278
C 1.783722 1.471639 1.727813
C 3.012170 7.883321 1.888606
C 1.787174 2.899642 1.715591
C 2.985767 5.060049 1.967982
C 1.787207 5.754996 1.715834
C 2.985774 3.594220 1.968026
C 1.783821 7.182928 1.728297
C 5.475191 0.776398 2.139284
C 4.208295 1.517323 2.105798
C 5.475231 7.877658 2.139404
C 4.208400 7.136733 2.106385
C 7.942421 0.771111 1.811532
C 6.730000 1.514959 2.031900
C 7.942435 7.883069 1.811613
C 6.818740 2.945292 2.135080
C 8.036723 5.045361 1.819744
C 6.818820 5.709003 2.135158
C 8.036687 3.609041 1.819833
C 6.730066 7.139309 2.031993
N 4.139534 2.892685 2.230876
N 4.139470 5.761385 2.231167
Rh 5.529418 4.326705 2.618551
