31
Title                                   
C 0.548209 0.764310 1.709774
C 9.176617 1.484902 1.726125
C 0.560117 7.890408 1.711996
C 9.196631 2.914642 1.701426
C 0.556600 5.037628 1.650215
C 9.209404 5.772638 1.736839
C 0.552170 3.617202 1.648799
C 9.202849 7.199524 1.766508
C 3.022758 0.757237 1.863013
C 1.776089 1.455077 1.755666
C 3.040957 7.863491 1.833902
C 1.768977 2.881273 1.723437
C 2.991936 5.009239 1.820587
C 1.781819 5.740370 1.693927
C 2.967756 3.571152 1.884247
C 1.801818 7.170001 1.722560
C 5.478456 0.781648 2.052060
C 4.225468 1.497497 2.036827
C 5.500517 7.871006 2.057374
C 4.222677 5.684148 1.999154
C 4.270259 7.119367 1.971738
C 7.937878 0.790007 1.838678
C 6.707882 1.532355 1.970873
C 7.956305 7.897144 1.873599
C 6.756213 2.967162 2.007981
C 8.013229 5.081999 1.904272
C 7.987420 3.645019 1.837719
C 6.753754 7.159224 2.051433
N 4.153182 2.901674 2.185247
N 6.828505 5.754548 2.217568
W 5.494921 4.330150 2.865758
