25
Title                                   
C 7.786477 1.764773 1.959529
C 7.770017 4.289958 1.944984
C 7.787432 6.814257 1.959956
C 1.690569 0.718171 1.959730
C 0.642625 1.764835 1.959430
C 1.691027 7.861645 1.959646
C 1.349100 5.535179 1.937771
C 0.658335 4.289958 1.944650
C 1.347772 3.044764 1.936851
C 0.643638 6.814505 1.959617
C 4.214404 0.734146 1.946201
C 2.969518 1.424642 1.937895
C 4.215000 7.846131 1.946308
C 2.969984 7.155646 1.938574
C 6.739671 0.717596 1.959750
C 5.460058 1.423271 1.937777
C 6.740291 7.861459 1.959727
C 7.080540 5.535337 1.937701
C 7.080303 3.044352 1.937106
C 5.460340 7.156381 1.937551
C 2.778653 2.855193 1.886985
C 2.780141 5.724778 1.888637
C 5.649665 2.853768 1.887262
C 5.649933 5.725927 1.886916
Ta 4.215047 4.289342 1.163545
