32
Title                                   
C 0.557243 0.774085 1.696121
C 9.191121 1.475596 1.750029
C 0.554725 7.895078 1.677015
C 9.188520 2.902362 1.819772
C 0.556199 5.035646 1.734613
C 9.202049 5.750985 1.795112
C 0.559895 3.615901 1.762895
C 9.193372 7.174573 1.740516
C 3.018942 0.771233 1.740141
C 1.791607 1.485841 1.730424
C 3.009629 7.897366 1.736022
C 1.798730 2.919283 1.779760
C 3.006009 5.066446 1.868872
C 1.779506 5.758700 1.728997
C 3.031242 3.631064 1.903200
C 1.777891 7.185960 1.694686
C 5.483907 0.738996 1.880835
C 4.256595 1.462854 1.846832
C 5.477435 7.863433 1.928099
C 4.260489 2.880713 2.022464
C 5.493388 3.469513 2.355530
C 4.221784 7.176033 1.878784
C 7.962936 0.759637 1.779286
C 6.727458 1.450080 1.893856
C 7.965708 7.884726 1.796086
C 6.737654 2.863816 2.087085
C 7.988826 5.036617 2.036777
C 6.850848 5.810460 2.312922
C 7.972829 3.598371 2.011107
C 6.742873 7.175296 1.999826
N 4.164038 5.803214 1.998213
Rh 5.410316 5.097316 3.327623
