32
Title                                   
C 0.555364 0.779920 1.745743
C 9.188421 1.494144 1.742000
C 0.575723 7.899935 1.770413
C 9.164456 2.929994 1.750626
C 0.568087 5.050145 1.786928
C 9.205286 5.763111 1.786459
C 0.554574 3.617416 1.780299
C 9.213199 7.184292 1.785747
C 3.024894 0.740665 1.822588
C 1.805345 1.472701 1.766674
C 1.802317 2.902732 1.805430
C 3.032274 5.024062 2.085530
C 1.808701 5.757602 1.871034
C 3.044914 3.598223 1.933529
C 1.803228 7.183481 1.834117
C 5.494114 0.718873 1.894015
C 5.489539 7.868781 2.039654
C 4.285988 2.844751 1.871671
C 4.231994 7.168862 2.169321
C 7.956782 0.765429 1.776394
C 6.706992 1.454320 1.800976
C 7.975209 7.900542 1.818115
C 6.668286 2.880840 1.780744
C 7.940674 5.089846 1.840692
C 7.901267 3.639990 1.772463
C 6.761040 7.167464 1.957859
C 4.134267 5.822254 2.499100
N 5.444610 3.490646 1.822532
N 6.787741 5.808013 1.995189
N 3.028917 7.895553 1.867668
N 4.240949 1.414775 1.874868
Pd 5.538610 5.081826 3.665120
