31
Title                                   
C -0.000726 1.787545 5.948578
C 1.237567 2.506000 5.959374
C 1.237588 3.926985 5.992651
C 0.002899 4.655783 6.011500
C 0.003249 10.331251 6.020737
C 1.237991 12.480907 5.969632
C 0.000425 14.627567 5.942636
C 1.237751 15.343900 5.936616
C 1.237648 16.772301 5.933868
C -0.000293 13.199224 5.958770
C 2.475805 1.787502 5.948600
C 3.709516 2.503178 5.960466
C 3.709548 3.933656 5.994445
C 2.474984 0.359171 5.936667
C 3.709434 6.762259 5.995710
C 3.709464 8.224942 5.998275
C 2.472067 4.655953 6.011439
C 2.472201 10.331121 6.020576
C 3.710041 12.483509 5.970518
C 2.475205 14.627671 5.942567
C 3.709861 15.343471 5.937452
C 3.709721 16.772951 5.934727
C 2.476241 13.199320 5.958776
C 3.709805 11.053186 6.004482
C 1.237786 11.060133 6.002731
C 0.000259 0.359149 5.936639
C 2.490390 8.921374 6.048088
C 4.928444 8.921601 6.048213
C 2.490039 6.065684 6.042699
C -0.015480 6.065422 6.042748
Ni 1.237065 7.495433 6.291019
