32
Title                                   
C 0.001803 1.799075 5.628241
C 1.235543 2.516610 5.724473
C 1.235476 3.926927 5.985910
C 0.007498 5.975021 6.587904
C -0.012055 4.620423 6.130263
C -0.024048 10.379924 6.184202
C 1.235481 12.476602 5.757738
C 0.002142 14.633408 5.531077
C 1.235519 15.354388 5.501009
C 1.235614 16.783167 5.494906
C 0.003056 13.207677 5.650060
C 2.469384 1.799100 5.628297
C 3.707629 2.507939 5.705281
C 3.707575 3.915054 5.939525
C 2.470900 0.372057 5.518585
C 2.463511 5.974961 6.588001
C 3.707524 8.176209 6.592613
C 2.483014 4.620364 6.130340
C 2.494945 10.380004 6.184196
C 3.707558 12.511098 5.731194
C 2.468998 14.633404 5.530975
C 3.707603 15.349184 5.498567
C 3.707684 16.783692 5.492240
C 2.468158 13.207636 5.650019
C 3.707610 11.109752 5.989059
C 1.235446 11.072239 6.029347
C 0.000286 0.372048 5.518583
C 2.586242 9.027128 6.588646
C 4.828759 9.027022 6.588708
C 1.235479 6.535422 6.999516
N 3.707510 6.713605 6.682838
Cu 1.235490 8.286181 7.688984
