32
Title                                   
C -0.007347 1.786267 5.606049
C 1.228718 2.498218 5.699879
C 1.225528 3.908272 5.949610
C -0.015912 5.977832 6.454069
C -0.022603 4.600488 6.071110
C -0.009845 10.360016 6.162493
C 1.243644 12.477268 5.860563
C 0.007172 14.624056 5.563721
C 1.238534 15.343574 5.529082
C 1.234118 16.771050 5.495900
C 0.012805 13.201155 5.708599
C 2.464479 1.783680 5.609094
C 3.697979 2.494423 5.681119
C 3.692590 3.907071 5.906416
C 2.469364 0.356764 5.509948
C 2.451624 5.994932 6.485960
C 3.701098 6.771779 6.578536
C 3.730655 8.310940 6.625846
C 2.467227 4.608765 6.091223
C 2.521395 10.420377 6.394122
C 3.719000 12.508026 5.810043
C 2.473125 14.624702 5.582375
C 3.710933 15.336960 5.521432
C 3.706532 16.769943 5.489532
C 2.475940 13.204580 5.745982
C 3.723158 11.107021 6.061315
C 1.252885 11.073305 6.157651
C -0.003283 0.358500 5.506833
C 2.641665 9.125466 6.964841
N 4.875355 8.993658 6.238814
N 1.207513 6.517355 6.783068
Zn 1.143287 8.230883 7.606074
