32
Title                                   
C 0.551835 0.786041 1.685920
C 9.189945 1.481800 1.721853
C 0.561625 7.904157 1.693231
C 9.181642 2.911222 1.798040
C 0.558991 5.045840 1.715556
C 9.200452 5.753123 1.799098
C 0.564312 3.615969 1.744957
C 9.199336 7.177126 1.758577
C 3.015656 0.759125 1.747473
C 1.795624 1.486257 1.708114
C 1.815913 2.917765 1.740745
C 3.013718 5.077823 1.862028
C 1.781396 5.771092 1.717500
C 3.062977 3.643140 1.833821
C 1.779680 7.194299 1.717516
C 5.486279 0.724383 1.888470
C 4.253277 1.442897 1.816848
C 5.468281 7.860957 2.031797
C 4.289782 2.865487 1.893201
C 4.199940 7.178812 1.989051
C 7.960517 0.753887 1.760189
C 6.723092 1.440184 1.842774
C 7.961191 7.885026 1.817228
C 6.703494 2.859773 1.967673
C 7.988186 5.051188 2.081449
C 6.872755 5.820268 2.472779
C 7.946702 3.611161 1.982247
C 6.749959 7.171783 2.104872
N 4.127708 5.840618 2.130322
N 5.494272 3.487969 2.086842
N 3.009292 7.907508 1.770182
Mn 5.425933 4.984512 3.433147
