32
Title                                   
C 0.556735 0.787946 1.669546
C 9.185793 1.496309 1.676588
C 0.568699 7.906769 1.694650
C 9.177492 2.925646 1.716119
C 0.564602 5.050884 1.674722
C 9.206881 5.759249 1.771624
C 0.561443 3.621833 1.684142
C 9.209474 7.191132 1.754400
C 3.019477 0.755189 1.768857
C 1.801878 1.487749 1.702631
C 1.809720 2.913811 1.717165
C 2.999945 5.053666 1.959272
C 1.797136 5.764758 1.738026
C 3.068368 3.618719 1.897104
C 1.791719 7.195585 1.740898
C 5.485526 0.722679 1.878383
C 5.472982 7.847905 1.985572
C 4.253428 2.820844 2.032588
C 4.204090 7.185269 2.033759
C 7.957420 0.767081 1.704448
C 6.707685 1.451141 1.807330
C 7.971228 7.901845 1.789953
C 6.717368 2.848883 1.988705
C 7.996237 5.070326 1.990562
C 7.916698 3.633684 1.898331
C 6.762397 7.194983 2.022307
N 4.071613 5.861759 2.408120
N 5.475322 3.373201 2.436761
N 6.883916 5.843796 2.387630
N 3.019251 7.912189 1.809139
N 4.235047 1.425854 1.880221
Ta 5.484195 5.020507 3.493949
