32
Title                                   
C 0.557218 0.789550 1.719345
C 9.186701 1.498313 1.749304
C 0.560304 7.900436 1.737170
C 9.175787 2.923274 1.808579
C 0.552884 5.042032 1.759502
C 9.198037 5.758174 1.804678
C 0.560634 3.621281 1.786451
C 9.194567 7.193598 1.768112
C 3.012476 0.754744 1.720176
C 1.800873 1.495939 1.730055
C 3.029101 7.886695 1.790028
C 1.802530 2.917372 1.786764
C 3.014476 5.053046 1.958613
C 1.789524 5.739130 1.801955
C 1.790477 7.173099 1.788052
C 5.479237 0.723998 1.879807
C 4.245634 1.443569 1.808524
C 4.254590 2.850497 1.927379
C 4.227984 7.162283 1.958515
C 7.963525 0.778442 1.747396
C 6.714200 1.447379 1.860271
C 7.957424 7.910806 1.762553
C 6.691758 2.852027 1.997138
C 7.971785 5.077149 1.966720
C 7.906612 3.638149 1.931938
C 6.747344 7.195979 1.905421
N 4.149786 5.803233 2.307878
N 5.443594 3.455433 2.304163
N 6.827432 5.858221 2.250648
N 5.485795 7.833931 1.916619
N 3.064042 3.629233 1.886177
Hf 5.577433 5.004181 3.593568
