31
Title                                   
C 0.555226 0.771452 1.752506
C 9.185613 1.483447 1.771131
C 0.559909 7.893797 1.751343
C 9.203670 2.909507 1.773813
C 0.561160 5.039358 1.742238
C 9.212792 5.768020 1.782266
C 0.559031 3.616499 1.741705
C 9.199574 7.189693 1.781982
C 3.026588 0.761212 1.843460
C 1.783315 1.471553 1.784669
C 3.029248 7.877475 1.826612
C 1.777892 2.899889 1.782407
C 3.002661 5.039202 1.856192
C 1.779827 5.749489 1.768861
C 2.998942 3.598752 1.886453
C 1.786725 7.177087 1.768434
C 5.475303 0.768619 1.978467
C 4.240023 1.493948 1.962687
C 5.483065 7.849167 1.968848
C 4.242580 7.128814 1.923882
C 7.947080 0.771883 1.831706
C 6.719688 1.501726 1.944156
C 7.957527 7.890547 1.841323
C 6.762843 2.922427 2.015911
C 7.998031 5.074823 1.892406
C 7.979670 3.626274 1.883181
C 6.744682 7.146467 1.953006
N 4.189468 2.897774 2.067006
N 6.806386 5.760758 2.038564
N 4.199754 5.734611 1.977161
Hf 5.473101 4.327773 2.926926
