31
Title                                   
C -0.037942 1.808649 5.862670
C 1.187275 2.536220 5.892397
C 1.166209 3.973396 5.986833
C -0.079423 4.689973 6.070033
C 0.078732 10.293164 5.994536
C 1.286463 12.451112 5.895397
C 0.020316 14.614963 5.832434
C 1.248375 15.339280 5.831245
C 1.225988 16.778107 5.830250
C 0.042504 13.174738 5.855569
C 2.431867 1.813332 5.850530
C 3.664949 2.530690 5.868004
C 3.639461 3.968693 5.935980
C 2.454086 0.372917 5.829264
C 3.659947 6.758125 6.195950
C 3.756173 8.228381 6.196520
C 2.395073 4.691693 5.979562
C 2.553534 10.300025 6.063440
C 3.754235 12.457015 5.871979
C 2.490906 14.616877 5.835755
C 3.720630 15.338023 5.825554
C 3.697719 16.779026 5.824639
C 2.512409 13.178137 5.864752
C 3.780028 11.019344 5.940802
C 1.306817 11.014381 5.989425
C -0.016525 0.370150 5.834458
C 0.040977 8.867197 6.087243
C 2.435759 6.116418 6.054170
N 2.577549 8.939320 6.308873
N -0.104320 6.049287 6.338300
Mo 1.252641 7.489517 6.954636
