25
Title                                   
C 7.773048 1.762732 1.909101
C 7.756636 4.290041 1.906253
C 7.773167 6.817067 1.909445
C 1.687902 0.731350 1.909850
C 0.656499 1.762506 1.909422
C 1.688036 7.847971 1.909918
C 1.347070 5.559574 1.906904
C 0.673223 4.289852 1.906571
C 1.346864 3.019951 1.906741
C 0.656656 6.816855 1.909635
C 4.214627 0.748183 1.907042
C 2.945044 1.421874 1.907071
C 4.214581 7.831719 1.907205
C 2.945303 7.157685 1.907209
C 6.741620 0.731640 1.909492
C 5.484216 1.422146 1.906513
C 6.741678 7.848228 1.909569
C 7.082711 5.559801 1.906388
C 7.082778 3.020230 1.905978
C 5.484295 7.157803 1.906747
N 2.747804 2.822620 1.904023
N 2.748068 5.756875 1.904317
N 5.681909 2.822795 1.903476
N 5.681818 5.757051 1.903763
Ti 4.214985 4.289463 1.901469
