31
Title                                   
C 0.554826 0.761789 1.875999
C 9.197254 1.468211 1.881752
C 0.554719 7.892472 1.875997
C 9.214401 2.897574 1.880384
C 0.555002 5.034803 1.871994
C 9.214329 5.756555 1.879701
C 0.555055 3.619428 1.872207
C 9.197201 7.185978 1.881396
C 3.017857 0.771430 1.896951
C 1.781904 1.468294 1.882389
C 3.017712 7.882810 1.897003
C 1.765104 2.897661 1.881279
C 2.969651 5.057624 1.900240
C 1.765044 5.756590 1.881490
C 2.969911 3.596415 1.899845
C 1.781682 7.186025 1.882567
C 5.489456 0.792631 1.918077
C 4.231832 1.523185 1.912840
C 5.489368 7.861350 1.918134
C 4.231557 7.131154 1.913315
C 7.961216 0.771350 1.896132
C 6.747358 1.523070 1.912489
C 7.961141 7.882792 1.895927
C 8.010062 5.057619 1.897753
C 8.009889 3.596413 1.898338
C 6.747352 7.131204 1.911981
N 4.158633 2.907987 1.918010
N 4.158208 5.746682 1.918349
N 6.821510 2.907804 1.916957
N 6.821777 5.746758 1.916450
Rh 5.490374 4.328385 1.933355
