32
Title                                   
C 0.551156 0.770333 1.684383
C 9.192592 1.471797 1.710745
C 0.558622 7.895443 1.684658
C 9.196341 2.902487 1.757471
C 0.559988 5.043635 1.707310
C 9.199643 5.748482 1.747359
C 0.564355 3.614758 1.729669
C 9.194070 7.171776 1.719075
C 3.013519 0.764264 1.766700
C 1.788288 1.475495 1.724366
C 1.801496 2.905559 1.770923
C 3.003992 5.049602 1.975935
C 1.790380 5.765471 1.754502
C 3.022866 3.617442 1.935565
C 1.789856 7.191508 1.732897
C 5.489651 0.751872 1.858412
C 4.250296 1.460183 1.854787
C 5.469719 7.889650 1.928489
C 4.254423 2.885206 2.015557
C 4.128635 5.839876 2.258398
C 5.509601 3.488055 2.250951
C 4.210469 7.203519 2.000659
C 7.959888 0.752331 1.737791
C 6.729513 1.455067 1.830131
C 7.955428 7.880859 1.763359
C 6.739224 2.872768 1.989412
C 7.974844 5.032417 1.936328
C 6.812997 5.783949 2.168885
C 7.972709 3.600695 1.900989
C 6.716141 7.170902 1.947414
N 3.003385 7.911969 1.788791
Au 5.529675 5.043821 3.681592
