32
Title                                   
C 0.557079 0.779245 1.711986
C 9.193646 1.461764 1.725021
C 0.554042 7.903309 1.708748
C 9.208909 2.892900 1.744826
C 0.566234 5.042852 1.692186
C 9.205480 5.743511 1.734501
C 0.579612 3.615994 1.727780
C 9.188801 7.166142 1.734600
C 3.017326 0.779259 1.835357
C 1.796896 1.494639 1.770169
C 1.821042 2.927368 1.811986
C 2.982635 5.094022 2.043599
C 1.779484 5.780162 1.764992
C 3.044308 3.662700 2.008832
C 1.772827 7.204097 1.764285
C 5.481421 0.734490 1.940757
C 4.257818 1.469822 1.940405
C 5.443251 7.854886 2.023443
C 4.279897 2.908262 2.088003
C 5.555425 3.495155 2.275556
C 4.169607 7.202842 2.092273
C 7.960914 0.731742 1.779439
C 6.730677 1.430220 1.883082
C 7.946342 7.860946 1.809930
C 6.760378 2.848942 1.995822
C 7.995991 5.014490 1.917670
C 6.835638 5.739631 2.201123
C 7.991522 3.583226 1.877380
C 6.708824 7.133013 2.012131
N 4.043071 5.893508 2.424777
N 2.993251 7.927224 1.844040
Ni 5.511418 5.034828 3.188799
