32
Title                                   
C 0.550963 0.770149 1.629031
C 9.190553 1.479651 1.660278
C 0.562432 7.894022 1.642144
C 9.189260 2.908293 1.714238
C 0.562313 5.041702 1.669234
C 9.202421 5.747717 1.733401
C 0.561062 3.614565 1.676062
C 9.199308 7.176518 1.695871
C 3.014123 0.754661 1.741859
C 1.789836 1.471362 1.673280
C 1.800172 2.899062 1.713612
C 2.995984 5.040173 1.966786
C 1.796237 5.758715 1.720150
C 3.021377 3.610019 1.925456
C 1.795994 7.185609 1.697407
C 5.490276 0.748724 1.868595
C 4.245883 1.451887 1.861846
C 5.475896 7.884188 1.976668
C 4.241662 2.862102 2.054354
C 4.120083 5.824595 2.356418
C 5.488489 3.477076 2.403194
C 4.210534 7.200609 2.034921
C 7.960538 0.762408 1.709545
C 6.726683 1.462388 1.836078
C 7.961644 7.893165 1.754785
C 6.732115 2.868821 2.040065
C 7.993036 5.040726 1.973659
C 6.844495 5.808398 2.332569
C 7.962292 3.609643 1.926010
C 6.740347 7.187843 2.003434
N 3.011072 7.902825 1.772966
Mo 5.496683 5.073571 3.549585
