32
Title                                   
C 0.557331 0.784829 1.789372
C 9.185566 1.500158 1.786442
C 0.572275 7.901395 1.793588
C 9.160411 2.933440 1.775405
C 0.555383 5.045899 1.781787
C 9.199468 5.763820 1.776731
C 0.559899 3.621604 1.799695
C 9.205413 7.193696 1.791851
C 3.019040 0.742329 1.853911
C 1.803950 1.488854 1.818397
C 3.042600 7.876483 1.880922
C 1.804357 2.907834 1.849128
C 3.037784 5.032719 2.045483
C 1.803710 5.737940 1.845248
C 1.806820 7.163398 1.839667
C 5.493529 0.719940 1.918339
C 4.256110 1.430014 1.902922
C 4.290540 2.855847 1.891130
C 4.260403 7.148322 2.078855
C 7.964153 0.776840 1.822399
C 6.708594 1.455546 1.850843
C 7.973436 7.914165 1.830732
C 6.648381 2.883221 1.799954
C 7.928473 5.098816 1.788445
C 7.895634 3.649932 1.765862
C 6.762721 7.162605 1.893352
C 4.182489 5.780222 2.411891
N 5.436000 3.530582 1.829989
N 6.764901 5.830516 1.868958
N 5.509962 7.853906 1.991248
N 3.048837 3.603879 1.945115
Pd 5.495594 5.022439 3.695838
