31
Title                                   
C 0.003981 1.829039 5.964714
C 1.237587 2.568234 5.978087
C 1.237463 4.024594 6.004192
C -0.006375 4.741924 6.015821
C -0.004248 10.249134 6.018809
C 1.237663 12.416510 5.983073
C 0.008339 14.594391 5.948519
C 1.237926 15.327689 5.942096
C 1.237830 16.779164 5.940495
C 0.010908 13.140948 5.970172
C 2.471317 1.829000 5.964670
C 3.709664 2.555579 5.977208
C 3.709467 3.999159 6.001901
C 2.472207 0.378833 5.945806
C 3.709469 6.789205 6.039642
C 3.709556 8.224822 6.041564
C 2.481274 4.741811 6.014223
C 2.479281 10.249286 6.017091
C 3.709815 12.424885 5.982792
C 2.467422 14.594244 5.948524
C 3.709819 15.322805 5.942500
C 3.709755 16.772745 5.941371
C 2.464661 13.140867 5.970111
C 3.709603 11.005323 6.006326
C 0.003232 0.378792 5.945786
N 2.506444 8.888988 6.034716
N -0.031466 8.888928 6.039636
N 2.514272 6.128368 6.032814
N -0.039396 6.128432 6.037933
N 1.237496 10.956256 6.006961
Fe 1.237451 7.488189 6.043644
