31
Title                                   
C 0.000011 1.796396 5.873454
C 1.237767 2.514126 5.899071
C 1.237444 3.937188 5.980839
C 0.010952 4.667071 6.023091
C 0.010523 10.320173 6.029512
C 1.237379 12.472919 5.906094
C 0.000907 14.623384 5.858519
C 1.238149 15.342698 5.853584
C 1.238297 16.774158 5.850823
C -0.000272 13.190682 5.880379
C 2.475644 1.796359 5.873684
C 3.709792 2.516627 5.890061
C 3.709547 3.953344 5.959390
C 2.475419 0.363867 5.853632
C 3.709411 6.762403 6.109748
C 3.709336 8.224599 6.113934
C 2.464151 4.667022 6.024344
C 2.463827 10.320101 6.030528
C 3.709448 12.470386 5.896461
C 2.475202 14.623414 5.858715
C 3.710256 15.341410 5.852964
C 3.710409 16.775250 5.850316
C 2.475304 13.190710 5.880506
C 3.709269 11.033841 5.965355
C 1.237216 11.049871 5.986650
C 0.001146 0.363811 5.853492
C 2.500191 8.905398 6.182607
C 4.918330 8.905450 6.180733
C 2.500296 6.081466 6.177019
C -0.025231 6.081637 6.174103
Ir 1.236376 7.492389 6.831594
