32
Title                                   
C 0.555249 0.775349 1.700965
C 9.183699 1.487555 1.768475
C 0.555410 7.887561 1.652257
C 9.185944 2.906137 1.863613
C 0.554940 5.037934 1.737230
C 9.193615 5.732169 1.742063
C 0.555687 3.612775 1.829205
C 9.184984 7.167856 1.689435
C 3.015306 0.761825 1.733956
C 1.797048 1.487265 1.753672
C 3.026721 7.896963 1.712891
C 1.795031 2.905297 1.846098
C 3.018873 5.043025 1.930166
C 1.785947 5.731678 1.718412
C 1.796010 7.167451 1.669161
C 5.490657 0.755712 1.891495
C 4.251399 1.459588 1.856738
C 4.266780 2.872628 2.044668
C 4.240717 7.176347 1.920064
C 7.965725 0.761694 1.754570
C 6.729866 1.460504 1.872560
C 7.954955 7.896730 1.738011
C 6.714233 2.873855 2.061905
C 7.963570 5.044624 1.969108
C 6.741489 7.176625 1.947384
C 4.184517 5.792931 2.178888
C 5.487995 3.519242 2.343009
C 6.799379 5.795792 2.223531
N 5.490902 7.876755 1.944187
N 3.032859 3.609440 1.969118
N 7.949015 3.610608 1.999953
Sc 5.465242 5.127277 3.650711
