32
Title                                   
C 0.553468 0.781606 1.641449
C 9.183780 1.481658 1.701179
C 0.547086 7.902224 1.626505
C 9.174456 2.907731 1.793409
C 0.551912 5.037044 1.676688
C 9.196287 5.752204 1.745171
C 0.557590 3.618107 1.730833
C 9.190056 7.177670 1.692998
C 3.014692 0.770523 1.715489
C 1.792516 1.493762 1.679421
C 3.003714 7.897484 1.742464
C 1.813336 2.925799 1.734720
C 3.017782 5.087808 1.871243
C 1.776778 5.761832 1.684579
C 3.060773 3.637133 1.843474
C 1.773771 7.187234 1.665860
C 5.478339 0.717093 1.898278
C 4.255990 1.453395 1.808782
C 5.472167 7.854489 2.041452
C 4.300964 2.873963 1.905383
C 4.197865 7.160038 1.981644
C 7.958570 0.756556 1.743710
C 6.718800 1.441262 1.852098
C 7.960149 7.884815 1.775686
C 6.690542 2.852965 1.990979
C 7.987195 5.049425 2.064082
C 6.899646 5.836803 2.453153
C 7.943340 3.604434 1.989868
C 6.751283 7.176362 2.091799
N 4.141732 5.809401 2.137839
N 5.493679 3.497443 2.128102
Cd 5.475505 5.022929 3.905164
