32
Title                                   
C 0.553830 0.784420 1.650971
C 9.184843 1.495124 1.667179
C 0.570028 7.905834 1.665853
C 9.172332 2.928482 1.719719
C 0.563967 5.054350 1.682369
C 9.204375 5.763560 1.751276
C 0.557049 3.624112 1.697283
C 9.209142 7.190496 1.724452
C 3.018576 0.756083 1.763512
C 1.799269 1.483979 1.695083
C 1.801890 2.908556 1.739256
C 2.994673 5.039610 2.036492
C 1.798959 5.765870 1.759352
C 3.041202 3.608134 1.951526
C 1.799733 7.194910 1.728173
C 5.492411 0.723394 1.865938
C 5.476567 7.869487 2.021721
C 4.250727 2.828671 2.054611
C 4.211694 7.199747 2.133310
C 7.955815 0.765634 1.692961
C 6.706232 1.453175 1.783503
C 7.970949 7.900482 1.768816
C 6.709814 2.853063 1.965845
C 7.986574 5.077099 1.969102
C 7.915718 3.635011 1.895986
C 6.760261 7.192033 2.017220
C 4.098705 5.837037 2.480918
N 5.472052 3.392182 2.377681
N 6.871008 5.844135 2.339360
N 3.019460 7.917317 1.809959
N 4.232748 1.425899 1.872048
Re 5.533163 4.993305 3.432023
