32
Title                                   
C -0.009733 1.789664 5.694143
C 1.225061 2.503287 5.769459
C 1.218882 3.923642 5.975670
C -0.014645 6.015113 6.431088
C -0.027037 4.624100 6.078184
C -0.002214 10.330181 6.069407
C 1.255148 12.455603 5.826483
C 0.013345 14.618506 5.634976
C 1.243612 15.339851 5.618167
C 1.236006 16.771225 5.606431
C 0.021989 13.187413 5.723046
C 2.462578 1.788210 5.696612
C 3.695465 2.502311 5.751068
C 3.687596 3.923976 5.932639
C 2.470457 0.357026 5.619687
C 2.430741 6.026563 6.450159
C 3.683038 6.803263 6.510490
C 3.727276 8.324115 6.482766
C 2.457671 4.628732 6.090233
C 2.532348 10.368148 6.233000
C 3.726068 12.491862 5.789392
C 2.478606 14.620007 5.647181
C 3.715924 15.333537 5.612482
C 3.708357 16.768745 5.601231
C 2.483807 13.190414 5.747440
C 3.733729 11.079791 5.980004
C 1.263336 11.030397 6.044609
C -0.002704 0.358067 5.617209
N 2.616870 9.086988 6.721319
N 4.884657 8.961888 6.135660
N 1.200548 6.561427 6.763147
Cu 1.140548 8.283274 7.597918
