32
Title                                   
C 0.001476 1.795073 5.657932
C 1.235461 2.512739 5.747588
C 1.235404 3.925756 5.978887
C -0.004126 5.997746 6.471002
C -0.010346 4.627550 6.094878
C -0.021166 10.376220 6.184425
C 1.235552 12.481124 5.804037
C 0.001325 14.630847 5.588094
C 1.235429 15.348226 5.559452
C 1.235489 16.779182 5.546697
C 0.002360 13.201999 5.703380
C 2.469528 1.795078 5.657859
C 3.707535 2.506389 5.721788
C 3.707498 3.917948 5.918854
C 2.470433 0.367154 5.563481
C 2.475061 5.997782 6.470893
C 3.707717 8.165980 6.425591
C 2.481275 4.627621 6.094749
C 2.492379 10.376233 6.184284
C 3.707595 12.502093 5.773489
C 2.469535 14.630825 5.588078
C 3.707464 15.345615 5.553836
C 3.707517 16.779643 5.540998
C 2.468690 13.201965 5.703423
C 3.707647 11.088214 5.992703
C 1.235531 11.062848 6.069062
C 0.000595 0.367125 5.563529
C 2.551026 8.979397 6.566224
C 4.864511 8.979335 6.566419
C 1.235535 6.609540 6.874162
N 3.707570 6.735228 6.501526
Re 1.235831 8.334850 7.783982
