31
Title                                   
C 0.005202 1.822167 5.953656
C 1.237405 2.555998 5.967687
C 1.237423 4.007746 5.998916
C -0.007080 4.717991 6.012383
C -0.006896 10.268777 6.019654
C 1.237583 12.431010 5.976883
C 0.003797 14.609563 5.944510
C 1.237706 15.336579 5.940049
C 1.237581 16.780680 5.937409
C 0.005515 13.165085 5.962067
C 2.469594 1.822229 5.953394
C 3.709422 2.543402 5.961457
C 3.709445 3.978453 5.987149
C 2.471368 0.378168 5.939539
C 3.709836 6.781237 6.044495
C 3.709937 8.205350 6.046570
C 2.482090 4.717972 6.010100
C 2.482370 10.268775 6.017535
C 3.709639 12.443810 5.970871
C 2.471475 14.609501 5.944354
C 3.709634 15.336462 5.938550
C 3.709481 16.780639 5.935770
C 2.469736 13.165037 5.961765
C 3.709686 11.008583 5.995573
C 1.237671 10.979116 6.007601
C 0.003575 0.378038 5.939719
N 2.518406 8.891672 6.053310
N 4.901330 8.891742 6.059303
N 2.518332 6.094645 6.049528
N -0.042853 6.094569 6.055866
Mn 1.238086 7.493149 6.115536
