31
Title                                   
C 0.014578 1.820222 5.893528
C 1.252942 2.552239 5.931104
C 1.262892 4.005500 5.996728
C 0.009593 4.696803 5.938891
C -0.015640 10.300302 5.941363
C 1.228570 12.436247 5.921293
C 0.005595 14.607749 5.876443
C 1.237039 15.333528 5.879402
C 1.241541 16.778344 5.880550
C 0.002587 13.158824 5.890397
C 2.480350 1.815122 5.914368
C 3.717434 2.536777 5.909751
C 3.719723 3.972147 5.948105
C 2.477320 0.371114 5.889263
C 3.754174 6.766132 6.080516
C 3.739858 8.218221 6.106141
C 2.507244 4.727305 6.085434
C 2.460843 10.267380 6.071519
C 3.703026 12.449026 5.901659
C 2.466010 14.605243 5.886592
C 3.709706 15.328921 5.876631
C 3.713573 16.773968 5.877263
C 2.460889 13.158742 5.906496
C 3.694263 11.028967 5.934416
C 0.008759 0.375045 5.878077
C 2.494817 8.884654 6.317379
N 4.936676 8.943921 5.952493
N 2.556034 6.100716 6.339839
N -0.022874 6.065420 5.880722
N 1.221817 10.998469 5.977852
Ti 1.047157 7.481100 6.816986
