31
Title                                   
C -0.004979 1.795594 5.820111
C 1.223333 2.526534 5.885509
C 1.219890 3.956070 6.021474
C -0.030682 4.680557 6.000862
C 0.032737 10.320531 5.939777
C 1.261623 12.454867 5.866164
C 0.020192 14.616443 5.765743
C 1.247987 15.339038 5.770592
C 1.240297 16.773328 5.774672
C 0.027215 13.176864 5.796457
C 2.462728 1.798187 5.842714
C 3.700924 2.507857 5.853844
C 3.691259 3.937556 5.952489
C 2.471925 0.363343 5.789318
C 3.697678 6.726250 6.211318
C 3.727657 8.251859 6.192981
C 2.467135 4.655642 6.135061
C 2.512394 10.340631 6.123302
C 3.731274 12.477883 5.823456
C 2.480862 14.617262 5.782226
C 3.719686 15.331780 5.761186
C 3.711857 16.771018 5.765858
C 2.489228 13.180438 5.828840
C 3.738121 11.060879 5.909053
C 0.002845 0.361225 5.776680
C 2.523535 8.981587 6.492183
C 0.005504 8.920260 5.950431
C 2.508611 6.042265 6.447548
N -0.061767 6.055274 6.030882
N 1.271119 11.055152 5.992795
Y 1.052226 7.481973 7.397675
