25
Title                                   
C 7.759783 1.780766 1.908508
C 7.763632 4.308711 1.905714
C 7.832398 6.859701 1.909456
C 1.644989 0.672847 1.909633
C 0.597465 1.719905 1.909420
C 1.706155 7.835156 1.909428
C 1.368925 5.515012 1.907436
C 0.666136 4.270937 1.906362
C 1.321126 2.977546 1.906256
C 0.670000 6.799139 1.909179
C 4.195698 0.741003 1.906675
C 2.902565 1.396606 1.906318
C 4.233954 7.838511 1.906723
C 2.989993 7.135732 1.907707
C 6.723756 0.744712 1.908801
C 5.439579 1.443861 1.906784
C 6.785134 7.907028 1.909298
C 7.108536 5.602092 1.906084
C 7.060529 3.064837 1.906316
C 5.527493 7.183274 1.906031
C 2.785881 5.718788 1.907688
C 5.643305 2.860830 1.906107
N 2.669834 2.745226 1.902204
N 5.760006 5.834501 1.901842
Zn 4.213668 4.289295 1.904128
