31
Title                                   
C -0.022666 1.804221 5.930514
C 1.201466 2.540208 5.940351
C 1.185907 3.981409 5.984826
C -0.050619 4.722663 6.070924
C 0.038900 10.278315 6.052270
C 1.259872 12.441552 5.928333
C 0.012959 14.606650 5.898055
C 1.239794 15.333187 5.894531
C 1.228146 16.774717 5.900492
C 0.025995 13.160426 5.914249
C 2.447208 1.814759 5.907884
C 3.687500 2.530920 5.919853
C 3.676335 3.971957 5.942275
C 2.459069 0.370828 5.898221
C 3.667248 6.776542 6.068362
C 3.713354 8.241260 6.107418
C 2.427942 4.684701 5.910373
C 2.512658 10.302857 5.969202
C 3.729543 12.453169 5.911715
C 2.473062 14.607348 5.890337
C 3.710630 15.325683 5.891719
C 3.699061 16.770202 5.897082
C 2.483626 13.160578 5.901636
C 3.746202 11.030404 5.951391
C -0.011303 0.364011 5.909941
C 0.011202 8.880959 6.238751
C 2.466477 6.093030 5.851612
N 2.514226 8.947312 6.009465
N -0.070736 6.105811 6.310308
N 1.271667 11.006021 5.979623
V 1.407690 7.476448 6.719486
