32
Title                                   
C 0.553640 0.779772 1.730126
C 9.185660 1.477556 1.756052
C 0.540897 7.900603 1.742497
C 9.181734 2.905287 1.802307
C 0.553062 5.037866 1.766711
C 9.192735 5.746165 1.838075
C 0.562119 3.618269 1.778607
C 9.185380 7.174299 1.814427
C 3.012849 0.775774 1.757128
C 1.792557 1.496673 1.738942
C 2.995026 7.903470 1.775134
C 1.819913 2.929794 1.769563
C 3.032557 5.094099 1.850013
C 1.777233 5.764487 1.761432
C 3.069235 3.642758 1.824771
C 1.769285 7.188888 1.749323
C 5.479647 0.722946 1.851723
C 4.258454 1.460795 1.800378
C 5.466785 7.856101 1.947247
C 4.313015 2.885734 1.851807
C 4.200743 7.161071 1.900891
C 7.959704 0.752276 1.797544
C 6.718524 1.437223 1.836601
C 7.954142 7.881388 1.857049
C 6.691864 2.854610 1.895915
C 7.965139 5.029986 2.027467
C 6.841273 5.804499 2.355893
C 7.942044 3.597843 1.918012
C 6.721582 7.168042 2.047310
N 4.180308 5.812680 1.981531
N 5.514832 3.522728 1.950983
Ag 5.501825 5.027507 3.838040
