31
Title                                   
C 0.002627 1.809828 5.934876
C 1.231907 2.543853 5.945039
C 1.228226 3.994110 5.999979
C -0.007295 4.721963 6.099934
C -0.005655 10.276572 6.067796
C 1.222071 12.447900 5.924200
C -0.001480 14.615380 5.919904
C 1.231973 15.337516 5.915357
C 1.234834 16.779463 5.916232
C -0.004623 13.172259 5.926890
C 2.470642 1.819269 5.910734
C 3.714933 2.530141 5.918983
C 3.720828 3.970037 5.942681
C 2.469309 0.374873 5.907601
C 3.693236 6.752114 6.032287
C 3.672659 8.190118 6.040649
C 2.482007 4.665912 5.915505
C 2.447006 10.335793 5.857180
C 3.704428 12.456919 5.903993
C 2.461601 14.609839 5.904560
C 3.701762 15.332427 5.909973
C 3.704239 16.776244 5.910430
C 2.459977 13.163833 5.898254
C 3.704653 11.032260 5.906572
C -0.000803 0.368358 5.921209
C 2.456435 8.934890 5.852495
C -0.015950 8.864520 6.367974
N 2.518797 6.038897 5.865053
N -0.060392 6.112481 6.372444
N 1.214130 11.028169 5.953145
W 1.490330 7.502208 6.759271
