32
Title                                   
C 0.551392 0.774518 1.676045
C 9.186387 1.491933 1.713419
C 0.571696 7.894942 1.664211
C 9.176225 2.922737 1.753708
C 0.561121 5.043273 1.668961
C 9.205281 5.757716 1.721726
C 0.550909 3.613263 1.703061
C 9.210527 7.185538 1.709765
C 3.018619 0.747751 1.760918
C 1.796258 1.468181 1.718863
C 1.786266 2.892382 1.752985
C 3.000494 5.019897 1.955872
C 1.795509 5.750844 1.714658
C 3.014269 3.587363 1.946408
C 1.801696 7.179326 1.693834
C 5.487423 0.742290 1.889862
C 5.486080 7.867366 1.990000
C 4.232093 2.830149 2.088550
C 4.222629 7.170845 2.025546
C 7.953204 0.771998 1.744714
C 6.707666 1.470373 1.853244
C 7.974871 7.906320 1.773344
C 6.711128 2.885921 2.049235
C 7.988303 5.074683 1.947020
C 7.932652 3.637271 1.933254
C 6.765159 7.191804 1.990661
C 4.131180 5.803533 2.285452
C 5.450365 3.457240 2.388183
N 6.873073 5.837281 2.280194
N 3.029500 7.898960 1.758969
N 4.231005 1.426608 1.873220
Zr 5.530782 5.108885 3.687617
