25
Title                                   
C 7.781333 1.760984 1.908872
C 7.735083 4.300217 1.905957
C 7.780278 6.833170 1.909386
C 1.697804 0.721866 1.909663
C 0.646925 1.772383 1.909060
C 1.686322 7.856275 1.909518
C 1.330445 5.567425 1.906675
C 0.644164 4.298899 1.906394
C 1.330165 3.046629 1.907293
C 0.651861 6.826821 1.909254
C 4.223623 0.719542 1.907262
C 2.971552 1.405670 1.907994
C 4.225012 7.810236 1.907055
C 2.949915 7.141663 1.907034
C 6.751765 0.726752 1.909217
C 5.492235 1.405687 1.906326
C 6.758154 7.855296 1.909490
C 7.076136 5.571498 1.906348
C 7.066863 3.024784 1.905743
C 5.496273 7.151038 1.906484
C 2.772019 2.847383 1.906188
N 2.725115 5.761640 1.904191
N 5.686794 2.799879 1.903292
N 5.703040 5.777979 1.903473
Tc 4.187661 4.262293 1.901929
