31
Title                                   
C 0.001593 1.815992 5.939113
C 1.231595 2.555523 5.945023
C 1.228242 4.010287 5.985097
C -0.015302 4.737803 6.060010
C -0.018233 10.264898 6.067820
C 1.228545 12.423516 5.946374
C 0.002774 14.602969 5.934884
C 1.234043 15.329094 5.930145
C 1.234798 16.776102 5.928614
C 0.001972 13.150775 5.942210
C 2.468298 1.822384 5.918345
C 3.710974 2.539147 5.922288
C 3.713623 3.977384 5.931978
C 2.469223 0.374171 5.920000
C 3.695190 6.785038 6.014827
C 3.687650 8.226652 6.024236
C 2.483165 4.702400 5.915156
C 2.473837 10.294603 5.900830
C 3.706585 12.447797 5.929164
C 2.463105 14.599337 5.925125
C 3.704521 15.322135 5.926449
C 3.705248 16.772602 5.923876
C 2.461444 13.145545 5.927047
C 3.706394 11.019767 5.943759
C -0.000668 0.369742 5.931693
N 2.498610 8.931559 5.812652
N 4.887420 8.901412 6.336801
N 2.513588 6.070081 5.856602
N -0.056567 6.111674 6.283994
N 1.222321 10.964843 5.969670
Ti 1.442509 7.512915 6.707418
