32
Title                                   
C 0.551318 0.787334 1.709357
C 9.177011 1.499506 1.752769
C 0.557344 7.895587 1.693263
C 9.169342 2.919504 1.814008
C 0.553330 5.044049 1.724636
C 9.194876 5.744680 1.745297
C 0.550197 3.615526 1.799561
C 9.193713 7.180831 1.727157
C 3.015432 0.762024 1.742199
C 1.795697 1.487966 1.744351
C 3.032592 7.892491 1.777876
C 1.791340 2.904621 1.826473
C 3.012884 5.042364 1.988814
C 1.788152 5.736024 1.765042
C 1.797445 7.173400 1.733272
C 5.494398 0.738496 1.931745
C 4.254385 1.449389 1.863753
C 4.264977 2.859639 1.986562
C 4.237903 7.178673 2.007429
C 7.961338 0.765169 1.760285
C 6.723520 1.462119 1.878486
C 7.958133 7.902569 1.772267
C 6.694758 2.865223 1.977219
C 7.959356 5.070996 1.912705
C 6.750714 7.183523 1.963003
C 4.145567 5.809544 2.384405
N 5.473999 3.479062 2.259306
N 6.839276 5.826448 2.227121
N 5.504707 7.865861 1.983893
N 3.046032 3.603258 1.936558
N 7.907549 3.637403 1.889517
Os 5.536477 5.027911 3.435172
