32
Title                                   
C 0.557599 0.787543 1.601794
C 9.190190 1.493279 1.628467
C 0.569759 7.904422 1.579287
C 9.182857 2.925930 1.726210
C 0.566727 5.051016 1.689430
C 9.210833 5.759901 1.670183
C 0.566014 3.620923 1.734590
C 9.208724 7.184589 1.609695
C 3.018878 0.755466 1.733658
C 1.803516 1.489903 1.704467
C 1.811337 2.914142 1.830435
C 2.978067 5.058962 2.196558
C 1.797991 5.763263 1.786429
C 3.029633 3.605240 2.149416
C 1.797938 7.191263 1.674366
C 5.484172 0.721373 1.839127
C 5.477516 7.864026 1.986232
C 4.259478 2.806260 2.261607
C 4.187225 7.203061 2.148791
C 7.953794 0.760092 1.617024
C 6.710020 1.448924 1.748173
C 7.966671 7.898452 1.649602
C 6.719806 2.839129 2.056506
C 7.980376 5.078514 1.911857
C 7.938330 3.626712 1.915852
C 6.763562 7.174491 1.921349
C 4.038995 5.914570 2.605371
C 5.511680 3.342250 2.577081
N 6.872283 5.835969 2.183259
N 3.013417 7.919181 1.734784
N 4.235000 1.418224 1.884963
Zn 5.531376 5.054121 3.356935
