32
Title                                   
C 0.557880 0.780536 1.646850
C 9.191256 1.483717 1.690817
C 0.550630 7.898830 1.643083
C 9.185217 2.903626 1.769268
C 0.559473 5.036655 1.705443
C 9.202229 5.749534 1.753641
C 0.562033 3.615003 1.740680
C 9.192497 7.176656 1.703311
C 3.017765 0.771487 1.712431
C 1.793756 1.494243 1.689281
C 3.005741 7.903453 1.750143
C 1.811219 2.920269 1.762571
C 3.001703 5.077474 1.955920
C 1.779690 5.760724 1.736528
C 3.059591 3.638254 1.923012
C 1.775329 7.187701 1.696704
C 5.484903 0.730787 1.871125
C 4.256649 1.459931 1.819379
C 5.479011 7.862994 1.988547
C 4.280735 2.862941 1.983999
C 4.205653 7.188480 1.989912
C 7.963712 0.760449 1.721703
C 6.725552 1.444445 1.831897
C 7.960526 7.891411 1.764420
C 6.719703 2.849097 2.004995
C 7.989857 5.044478 2.006198
C 6.851282 5.812741 2.347351
C 7.946998 3.607999 1.953295
C 6.750653 7.185039 2.021997
N 4.112840 5.842309 2.280633
N 5.502031 3.449076 2.297909
Nb 5.457648 5.020852 3.550459
