32
Title                                   
C 0.556444 0.767533 1.729124
C 9.194494 1.477041 1.746214
C 0.566117 7.894013 1.736643
C 9.192176 2.908439 1.781804
C 0.562592 5.049260 1.760063
C 9.200240 5.754636 1.802858
C 0.562989 3.615392 1.760425
C 9.198700 7.177843 1.775973
C 3.020652 0.756256 1.805121
C 1.801187 1.472476 1.758549
C 1.795640 2.901775 1.788995
C 3.011570 5.028661 1.980350
C 1.796753 5.762658 1.804700
C 3.020032 3.603233 1.938930
C 1.796647 7.187975 1.779543
C 5.482615 0.753084 1.889629
C 5.472264 7.903333 1.974704
C 4.248638 2.860077 2.037509
C 4.228346 7.188191 2.031298
C 7.957063 0.761217 1.777123
C 6.715275 1.467098 1.854831
C 7.962677 7.895570 1.817083
C 6.733802 2.880866 1.992528
C 7.970523 5.046028 1.966157
C 7.961719 3.607213 1.917441
C 6.727400 7.194309 1.989555
C 4.165084 5.811548 2.239587
C 5.479405 3.491711 2.246468
C 6.800485 5.799541 2.197809
N 3.020754 7.914261 1.829364
N 4.236841 1.444152 1.878831
Co 5.494639 5.035799 3.124291
