32
Title                                   
C 0.014559 1.786613 5.824232
C 1.252255 2.507362 5.828302
C 1.264601 3.940252 5.845296
C 0.080267 6.070693 5.916302
C 0.024884 4.653377 5.862189
C -0.068368 10.332669 6.145379
C 1.200682 12.464566 6.005937
C -0.017219 14.622527 5.875067
C 1.220409 15.341545 5.862099
C 1.232426 16.770509 5.835378
C -0.028194 13.193519 5.931918
C 2.483157 1.787111 5.826073
C 3.725346 2.504500 5.828886
C 3.738427 3.922817 5.847649
C 2.472168 0.358616 5.828794
C 2.479667 6.060829 5.922841
C 3.713338 8.240448 6.204497
C 2.513825 4.647023 5.867770
C 2.439559 10.336279 6.246771
C 3.673934 12.489033 5.969306
C 2.450930 14.622101 5.884352
C 3.692929 15.339358 5.856813
C 3.704644 16.768968 5.833060
C 2.438725 13.194873 5.950950
C 3.661558 11.067965 6.081488
C 1.190011 11.041450 6.152331
C 0.000782 0.358562 5.826778
C 2.543928 8.952042 6.531201
N 4.867540 8.965482 6.153270
N 1.288694 6.711939 5.941998
N 3.753120 6.820879 5.975314
Pd 1.248749 8.173413 7.789061
