32
Title                                   
C 0.007120 1.783769 5.894089
C 1.245586 2.502881 5.935089
C 1.247421 3.926604 6.035585
C 0.029693 6.030496 6.218692
C 0.004422 4.637056 6.050173
C -0.017821 10.277382 5.857856
C 1.242810 12.449045 5.890392
C 0.012399 14.612292 5.861695
C 1.245962 15.332419 5.866492
C 1.244502 16.764000 5.868297
C 0.016969 13.181094 5.866501
C 2.480065 1.781457 5.900148
C 3.713835 2.503729 5.909234
C 3.712614 3.927669 5.972989
C 2.480774 0.351661 5.873006
C 2.456232 6.064051 6.263557
C 3.755718 8.220367 6.053924
C 2.484405 4.654768 6.082049
C 2.508067 10.333114 6.035523
C 3.721610 12.471402 5.890309
C 2.478233 14.609932 5.874902
C 3.716560 15.328454 5.863771
C 3.716192 16.760094 5.863020
C 2.475851 13.175023 5.895657
C 3.719891 11.055924 5.925821
C 1.248513 10.993725 5.903179
C 0.007831 0.353503 5.868552
C 2.631001 8.940166 6.407547
N 4.886407 8.855576 5.459689
N 1.227721 6.702708 6.498998
N 3.731910 6.779153 6.202515
Hf 0.824841 8.687807 7.362048
