25
Title                                   
C 7.776690 1.753359 1.908999
C 7.719562 4.289952 1.905730
C 7.776683 6.826250 1.909141
C 1.691697 0.713531 1.909244
C 0.640532 1.768556 1.908959
C 1.691753 7.865940 1.909491
C 1.325383 5.540082 1.907231
C 0.621138 4.289921 1.906436
C 1.325335 3.039637 1.907116
C 0.640511 6.810962 1.909230
C 4.238599 0.741449 1.906990
C 2.983983 1.438521 1.907367
C 4.238577 7.838295 1.907047
C 2.984063 7.141076 1.907632
C 6.751900 0.728747 1.909233
C 5.497588 1.422398 1.906284
C 6.751926 7.850970 1.909310
C 7.049745 5.555902 1.905927
C 7.049875 3.023897 1.905851
C 5.497550 7.157404 1.906316
C 2.766615 2.848540 1.905887
C 2.766693 5.731117 1.906214
N 5.682965 2.816815 1.903075
N 5.682842 5.762868 1.903273
Mn 4.218333 4.289822 1.902118
